                                   MODFLOW 6
                U.S. GEOLOGICAL SURVEY MODULAR HYDROLOGIC MODEL
                          GROUNDWATER FLOW MODEL (GWF)
                            VERSION 6.5.0 05/23/2024

   MODFLOW 6 compiled Jun 21 2024 02:57:23 with Intel(R) Fortran Intel(R) 64
   Compiler Classic for applications running on Intel(R) 64, Version 2021.7.0
                             Build 20220726_000000

This software has been approved for release by the U.S. Geological 
Survey (USGS). Although the software has been subjected to rigorous 
review, the USGS reserves the right to update the software as needed 
pursuant to further analysis and review. No warranty, expressed or 
implied, is made by the USGS or the U.S. Government as to the 
functionality of the software and related material nor shall the 
fact of release constitute any such warranty. Furthermore, the 
software is released on condition that neither the USGS nor the U.S. 
Government shall be held liable for any damages resulting from its 
authorized or unauthorized use. Also refer to the USGS Water 
Resources Software User Rights Notice for complete use, copyright, 
and distribution information.


As a work of the United States Government, this USGS product is 
in the public domain within the United States. You can copy, 
modify, distribute, and perform the work, even for commercial 
purposes, all without asking permission. Additionally, USGS 
waives copyright and related rights in the work worldwide 
through CC0 1.0 Universal Public Domain Dedication 
(https://creativecommons.org/publicdomain/zero/1.0/).

The following GNU Lesser General Public License (LGPL) libraries
are used in this USGS product:

    SPARSKIT version 2.0
      ilut, luson, and qsplit 
      (https://www-users.cse.umn.edu/~saad/software/SPARSKIT/)

    RCM - Reverse Cuthill McKee Ordering
      (https://people.math.sc.edu/Burkardt/f_src/rcm/rcm.html)

    BLAS - Basic Linear Algebra Subprograms Level 1
      (https://people.math.sc.edu/Burkardt/f_src/blas1_d/blas1_d.html)

    SPARSEKIT - Sparse Matrix Utility Package
      amux, dperm, dvperm, rperm, and cperm
      (https://people.sc.fsu.edu/~jburkardt/f77_src/sparsekit/sparsekit.html)

The following BSD-3 License libraries are used in this USGS product:

    Modern Fortran DAG Library
      Copyright (c) 2018, Jacob Williams
      All rights reserved.
      (https://github.com/jacobwilliams/daglib)

MODFLOW 6 compiler options: /O2 /heap-arrays:0 /fpe:0 /traceback /nologo /fpp
/c /module:win64\mod_mf6\ /object:win64\obj_mf6\

System command used to initiate simulation:
C:\Users\gross.DESKTOP-AIRQM2M\anaconda3\envs\gmdsitut\Scripts\mf6.exe

MODFLOW was compiled using uniform precision.

Real Variables
  KIND: 8
  TINY (smallest non-zero value):    2.225074-308
  HUGE (largest value):    1.797693+308
  PRECISION: 15
  SIZE IN BITS: 64

Integer Variables
  KIND: 4
  HUGE (largest value): 2147483647
  SIZE IN BITS: 32

Long Integer Variables
  KIND: 8
  HUGE (largest value): 9223372036854775807
  SIZE IN BITS: 64

Logical Variables
  KIND: 4
  SIZE IN BITS: 32
 
 NAMEFILE OPTIONS:
    NEWTON-RAPHSON method enabled for the model.
    FLOWS WILL BE SAVED TO BUDGET FILE SPECIFIED IN OUTPUT CONTROL
 END NAMEFILE OPTIONS:

 DIS -- STRUCTURED GRID DISCRETIZATION PACKAGE, VERSION 2 : 3/27/2014 - INPUT READ FROM MEMPATH: __INPUT__/E11/DIS                                 


 NPF -- NODE PROPERTY FLOW PACKAGE, VERSION 1, 3/30/2015 INPUT READ FROM MEMPATH: __INPUT__/E11/NPF                                 


 IC -- Initial Conditions Package, Version 8, 3/28/2015 input read from mempath: __INPUT__/E11/IC                                  


 Setting Discretization Options
    Model length unit [0=UND, 1=FEET, 2=METERS, 3=CENTIMETERS] set as 1
 End Setting Discretization Options

 Setting Discretization Dimensions
    NLAY = 1
    NROW = 15
    NCOL = 10
 End Setting Discretization Dimensions

 Setting Discretization Griddata
    DELR set from input file
    DELC set from input file
    TOP set from input file
    BOTM set from input file
    IDOMAIN set from input file
 End Setting Discretization Griddata


 The specified IDOMAIN results in a reduced number of cells.
 Number of user nodes: 150
 Number of nodes in solution: 116


 Setting NPF Options
    Specific discharge will be calculated at cell centers and written to DATA-SPDIS in budget file when requested.
 End Setting NPF Options

 Setting NPF Griddata
    ICELLTYPE set from input file
    K set from input file
    K33 not provided.  Setting K33 = K.
    K22 not provided.  Setting K22 = K.
 End Setting NPF Griddata


 WEL   -- WEL PACKAGE, VERSION 8, 2/22/2014 INPUT READ FROM MEMPATH: __INPUT__/E11/WEL_0                               

 PROCESSING WEL BASE OPTIONS
 END OF WEL BASE OPTIONS

 PROCESSING WEL OPTIONS
 END OF WEL OPTIONS

 PROCESSING WEL BASE DIMENSIONS
    MAXBOUND =      10
 END OF WEL BASE DIMENSIONS

 GHB   -- GHB PACKAGE, VERSION 8, 2/22/2014 INPUT READ FROM MEMPATH: __INPUT__/E11/GHB_0                               

 PROCESSING GHB BASE OPTIONS
 END OF GHB BASE OPTIONS

 PROCESSING GHB OPTIONS
 END OF GHB OPTIONS

 PROCESSING GHB BASE DIMENSIONS
    MAXBOUND =       2
 END OF GHB BASE DIMENSIONS

 RCH   -- RCH PACKAGE, VERSION 8, 2/22/2014 INPUT READ FROM MEMPATH: __INPUT__/E11/RCHA_0                              

 PROCESSING RCH BASE OPTIONS
 END OF RCH BASE OPTIONS

 PROCESSING RCHA OPTIONS
    RECHARGE INPUT WILL BE READ AS ARRAY(S).
 END OF RCHA OPTIONS

 EVT   -- EVT PACKAGE, VERSION 8, 2/22/2014 INPUT READ FROM MEMPATH: __INPUT__/E11/EVTA_0                              

 PROCESSING EVT BASE OPTIONS
 END OF EVT BASE OPTIONS

 PROCESSING EVTA OPTIONS
    EVAPOTRANSPIRATION INPUT WILL BE READ AS ARRAYS.
 END OF EVTA OPTIONS

 SFR   -- SFR PACKAGE, VERSION 8, 2/22/2014 INPUT READ FROM UNIT 1015
 # File generated by Flopy version 3.8.2 on 11/13/2025 at 07:02:13.

 PROCESSING SFR OPTIONS

 OPENED e11.sfr.obs
 FILE TYPE:OBS   UNIT 1018   STATUS:OLD                 
 FORMAT:FORMATTED              ACCESS:SEQUENTIAL          
 ACTION:READ                

    LENGTH CONVERSION VALUE (3.280810000000000) SPECIFIED.
 END OF SFR OPTIONS

 PROCESSING SFR DIMENSIONS
    NREACHES = 36
 END OF SFR DIMENSIONS

 PROCESSING SFR PACKAGEDATA
 END OF SFR PACKAGEDATA

 PROCESSING SFR CONNECTIONDATA
 END OF SFR CONNECTIONDATA

 PROCESSING SFR DIVERSIONS
 END OF SFR DIVERSIONS
    STRT set from input file

 STO -- STORAGE PACKAGE, VERSION 1, 5/19/2014 INPUT READ FROM UNIT 1006


 # File generated by Flopy version 3.8.2 on 11/13/2025 at 07:02:13.
 PROCESSING STORAGE OPTIONS
 END OF STORAGE OPTIONS
 PROCESSING GRIDDATA

                 ICONVERT = 1

         SPECIFIC STORAGE =  0.1000000E-05
 END PROCESSING GRIDDATA
    BINARY GRID INFORMATION WILL BE WRITTEN TO:
      UNIT NUMBER: 1019
      FILE NAME: e11.dis.grb

 OPENED e11.dis.grb
 FILE TYPE:DATA(BINARY)   UNIT 1019   STATUS:REPLACE             
 FORMAT:UNFORMATTED            ACCESS:STREAM              
 ACTION:READWRITE           

      THE LAST TIME STEP WILL BE PRINTED
      THE LAST TIME STEP WILL BE PRINTED
 # File generated by Flopy version 3.8.2 on 11/13/2025 at 07:02:13.

 PROCESSING OC OPTIONS

    BUDGET INFORMATION WILL BE WRITTEN TO:
      UNIT NUMBER: 1020
      FILE NAME: e11.cbc

 OPENED e11.cbc
 FILE TYPE:DATA(BINARY)   UNIT 1020   STATUS:REPLACE             
 FORMAT:UNFORMATTED            ACCESS:STREAM              
 ACTION:READWRITE           

    HEAD INFORMATION WILL BE WRITTEN TO:
      UNIT NUMBER: 1021
      FILE NAME: e11.hds

 OPENED e11.hds
 FILE TYPE:DATA(BINARY)   UNIT 1021   STATUS:REPLACE             
 FORMAT:UNFORMATTED            ACCESS:STREAM              
 ACTION:READWRITE           

 END OF OC OPTIONS

The observation utility is active for "SFR_0"
 # File generated by Flopy version 3.8.2 on 11/13/2025 at 07:02:13.

Processing observation options:

Text output number of digits of precision set to: 10
The PRINT_INPUT option has been specified.


 OBSERVATIONS READ FROM FILE "e11.sfr.obs"
 ----------------------------------------------------------------------------------------------------------------------------------------------------------------------------------------------------------------------------
 NAME                                     TYPE                                       TIME         LOCATION DATA                              OUTPUT FILENAME                                                                 
 ----------------------------------------------------------------------------------------------------------------------------------------------------------------------------------------------------------------------------
 R01_H                                    CONTINUOUS  STAGE                          ALL TIMES    "  4"                                      e11.sfr.obs.csv                                                                 
 R02_H                                    CONTINUOUS  STAGE                          ALL TIMES    "  15"                                     e11.sfr.obs.csv                                                                 
 R03_H                                    CONTINUOUS  STAGE                          ALL TIMES    "  27"                                     e11.sfr.obs.csv                                                                 
 R04_H                                    CONTINUOUS  STAGE                          ALL TIMES    "  36"                                     e11.sfr.obs.csv                                                                 
 R01_F                                    CONTINUOUS  DOWNSTREAM-FLOW                ALL TIMES    "  4"                                      e11.sfr.obs.csv                                                                 
 R02_F                                    CONTINUOUS  DOWNSTREAM-FLOW                ALL TIMES    "  15"                                     e11.sfr.obs.csv                                                                 
 R03_F                                    CONTINUOUS  DOWNSTREAM-FLOW                ALL TIMES    "  27"                                     e11.sfr.obs.csv                                                                 
 R04_F                                    CONTINUOUS  DOWNSTREAM-FLOW                ALL TIMES    "  36"                                     e11.sfr.obs.csv                                                                 
 ----------------------------------------------------------------------------------------------------------------------------------------------------------------------------------------------------------------------------


 SFR PACKAGE (SFR_0) CONVERSION DATA
    UNIT CONVERSION VALUE (1.485914064252526).


start timestep kper="1" kstp="1" mode="normal"


 BEGIN READING OUTPUT CONTROL FOR STRESS PERIOD 1
      THE LAST TIME STEP WILL BE SAVED
      THE LAST TIME STEP WILL BE SAVED

 END READING OUTPUT CONTROL FOR STRESS PERIOD 1


 PROCESSING STORAGE PERIOD DATA
 END PROCESSING STORAGE PERIOD DATA


 STRESS PERIOD 1 IS STEADY-STATE

 UBDSV1 SAVING           STO-SS ON UNIT   1020 AT TIME STEP      1, STRESS PERIOD      1
 UBDSV1 SAVING           STO-SY ON UNIT   1020 AT TIME STEP      1, STRESS PERIOD      1
 UBDSV1 SAVING     FLOW-JA-FACE ON UNIT   1020 AT TIME STEP      1, STRESS PERIOD      1
 UBDSV06 SAVING       DATA-SPDIS IN MODEL E11              PACKAGE NPF             CONNECTED TO MODEL E11              PACKAGE NPF              ON UNIT   1020 AT TIME STEP      1, STRESS PERIOD      1
 UBDSV06 SAVING              WEL IN MODEL E11              PACKAGE E11             CONNECTED TO MODEL E11              PACKAGE WEL_0            ON UNIT   1020 AT TIME STEP      1, STRESS PERIOD      1
 UBDSV06 SAVING              GHB IN MODEL E11              PACKAGE E11             CONNECTED TO MODEL E11              PACKAGE GHB_0            ON UNIT   1020 AT TIME STEP      1, STRESS PERIOD      1
 UBDSV06 SAVING             RCHA IN MODEL E11              PACKAGE E11             CONNECTED TO MODEL E11              PACKAGE RCHA_0           ON UNIT   1020 AT TIME STEP      1, STRESS PERIOD      1
 UBDSV06 SAVING            EVTA  IN MODEL E11              PACKAGE E11             CONNECTED TO MODEL E11              PACKAGE EVTA_0           ON UNIT   1020 AT TIME STEP      1, STRESS PERIOD      1
 UBDSV06 SAVING              SFR IN MODEL E11              PACKAGE E11             CONNECTED TO MODEL E11              PACKAGE SFR_0            ON UNIT   1020 AT TIME STEP      1, STRESS PERIOD      1

 HEAD WILL BE SAVED ON UNIT 1021 AT END OF TIME STEP    1, STRESS PERIOD    1


  SFR_0 BUDGET FOR ENTIRE MODEL AT END OF TIME STEP    1, STRESS PERIOD   1
  ------------------------------------------------------------------------------

     CUMULATIVE SFR_0      L**3       RATES FOR THIS TIME STEP      L**3/T
     ------------------                 ------------------------

           IN:                                      IN:
           ---                                      ---
                 GWF =           0.0000                   GWF =          10.9102
            RAINFALL =           0.0000              RAINFALL =           0.0000
         EVAPORATION =           0.0000           EVAPORATION =           0.0000
              RUNOFF =           0.0000                RUNOFF =           0.0000
          EXT-INFLOW =           0.0000            EXT-INFLOW =         185.0000
         EXT-OUTFLOW =           0.0000           EXT-OUTFLOW =           0.0000
             STORAGE =           0.0000               STORAGE =           0.0000

            TOTAL IN =           0.0000              TOTAL IN =         195.9102

          OUT:                                     OUT:
          ----                                     ----
                 GWF =           0.0000                   GWF =          42.2332
            RAINFALL =           0.0000              RAINFALL =           0.0000
         EVAPORATION =           0.0000           EVAPORATION =           0.0000
              RUNOFF =           0.0000                RUNOFF =           0.0000
          EXT-INFLOW =           0.0000            EXT-INFLOW =           0.0000
         EXT-OUTFLOW =           0.0000           EXT-OUTFLOW =         153.6770
             STORAGE =           0.0000               STORAGE =           0.0000

           TOTAL OUT =           0.0000             TOTAL OUT =         195.9102

            IN - OUT =           0.0000              IN - OUT =       2.8422E-14

 PERCENT DISCREPANCY =           0.00     PERCENT DISCREPANCY =           0.00



  VOLUME BUDGET FOR ENTIRE MODEL AT END OF TIME STEP    1, STRESS PERIOD   1
  ---------------------------------------------------------------------------------------------------

     CUMULATIVE VOLUME      L**3       RATES FOR THIS TIME STEP      L**3/T          PACKAGE NAME    
     ------------------                 ------------------------                     ----------------

           IN:                                      IN:
           ---                                      ---
              STO-SS =           0.0000                STO-SS =           0.0000     STORAGE                          
              STO-SY =           0.0000                STO-SY =           0.0000     STORAGE                          
                 WEL =           0.0000                   WEL =           0.0000     WEL_0                            
                 GHB =           0.0000                   GHB =           0.2529     GHB_0                            
                RCHA =           0.0000                  RCHA =           1.7938     RCHA_0                           
                EVTA =           0.0000                  EVTA =           0.0000     EVTA_0                           
                 SFR =           0.0000                   SFR =          42.2332     SFR_0                            

            TOTAL IN =           0.0000              TOTAL IN =          44.2799

          OUT:                                     OUT:
          ----                                     ----
              STO-SS =           0.0000                STO-SS =           0.0000     STORAGE                          
              STO-SY =           0.0000                STO-SY =           0.0000     STORAGE                          
                 WEL =           0.0000                   WEL =           0.0000     WEL_0                            
                 GHB =           0.0000                   GHB =           0.1995     GHB_0                            
                RCHA =           0.0000                  RCHA =           0.0000     RCHA_0                           
                EVTA =           0.0000                  EVTA =          33.1702     EVTA_0                           
                 SFR =           0.0000                   SFR =          10.9102     SFR_0                            

           TOTAL OUT =           0.0000             TOTAL OUT =          44.2799

            IN - OUT =           0.0000              IN - OUT =      -2.7636E-07

 PERCENT DISCREPANCY =           0.00     PERCENT DISCREPANCY =          -0.00




         TIME SUMMARY AT END OF TIME STEP    1 IN STRESS PERIOD    1
                    SECONDS     MINUTES      HOURS       DAYS        YEARS
                    -----------------------------------------------------------
   TIME STEP LENGTH  0.0000      0.0000      0.0000      0.0000      0.0000    
 STRESS PERIOD TIME  0.0000      0.0000      0.0000      0.0000      0.0000    
         TOTAL TIME  0.0000      0.0000      0.0000      0.0000      0.0000    


end timestep


start timestep kper="2" kstp="1" mode="normal"


 END OF FILE DETECTED IN OUTPUT CONTROL.
 CURRENT OUTPUT CONTROL SETTINGS WILL BE 
 REPEATED UNTIL THE END OF THE SIMULATION.

 OUTPUT CONTROL FOR STRESS PERIOD 2 IS REPEATED USING SETTINGS FROM A PREVIOUS STRESS PERIOD.


 PROCESSING STORAGE PERIOD DATA
 END PROCESSING STORAGE PERIOD DATA


 STRESS PERIOD 2 IS TRANSIENT


 REUSING SFRS FROM LAST STRESS PERIOD

end timestep


start timestep kper="2" kstp="2" mode="normal"


end timestep


start timestep kper="2" kstp="3" mode="normal"


end timestep


start timestep kper="2" kstp="4" mode="normal"


end timestep


start timestep kper="2" kstp="5" mode="normal"


end timestep


start timestep kper="2" kstp="6" mode="normal"


end timestep


start timestep kper="2" kstp="7" mode="normal"


end timestep


start timestep kper="2" kstp="8" mode="normal"


end timestep


start timestep kper="2" kstp="9" mode="normal"


end timestep


start timestep kper="2" kstp="10" mode="normal"


end timestep


start timestep kper="2" kstp="11" mode="normal"


end timestep


start timestep kper="2" kstp="12" mode="normal"


end timestep


start timestep kper="2" kstp="13" mode="normal"


end timestep


start timestep kper="2" kstp="14" mode="normal"


end timestep


start timestep kper="2" kstp="15" mode="normal"


end timestep


start timestep kper="2" kstp="16" mode="normal"


end timestep


start timestep kper="2" kstp="17" mode="normal"


end timestep


start timestep kper="2" kstp="18" mode="normal"


end timestep


start timestep kper="2" kstp="19" mode="normal"


end timestep


start timestep kper="2" kstp="20" mode="normal"


end timestep


start timestep kper="2" kstp="21" mode="normal"


end timestep


start timestep kper="2" kstp="22" mode="normal"


end timestep


start timestep kper="2" kstp="23" mode="normal"


end timestep


start timestep kper="2" kstp="24" mode="normal"


end timestep


start timestep kper="2" kstp="25" mode="normal"


end timestep


start timestep kper="2" kstp="26" mode="normal"


end timestep


start timestep kper="2" kstp="27" mode="normal"


end timestep


start timestep kper="2" kstp="28" mode="normal"


end timestep


start timestep kper="2" kstp="29" mode="normal"


end timestep


start timestep kper="2" kstp="30" mode="normal"


end timestep


start timestep kper="2" kstp="31" mode="normal"


end timestep


start timestep kper="2" kstp="32" mode="normal"


end timestep


start timestep kper="2" kstp="33" mode="normal"


end timestep


start timestep kper="2" kstp="34" mode="normal"


end timestep


start timestep kper="2" kstp="35" mode="normal"


end timestep


start timestep kper="2" kstp="36" mode="normal"


end timestep


start timestep kper="2" kstp="37" mode="normal"


end timestep


start timestep kper="2" kstp="38" mode="normal"


end timestep


start timestep kper="2" kstp="39" mode="normal"


end timestep


start timestep kper="2" kstp="40" mode="normal"


end timestep


start timestep kper="2" kstp="41" mode="normal"


end timestep


start timestep kper="2" kstp="42" mode="normal"


end timestep


start timestep kper="2" kstp="43" mode="normal"


end timestep


start timestep kper="2" kstp="44" mode="normal"


end timestep


start timestep kper="2" kstp="45" mode="normal"


end timestep


start timestep kper="2" kstp="46" mode="normal"


end timestep


start timestep kper="2" kstp="47" mode="normal"


end timestep


start timestep kper="2" kstp="48" mode="normal"


end timestep


start timestep kper="2" kstp="49" mode="normal"


end timestep


start timestep kper="2" kstp="50" mode="normal"

 UBDSV1 SAVING           STO-SS ON UNIT   1020 AT TIME STEP     50, STRESS PERIOD      2
 UBDSV1 SAVING           STO-SY ON UNIT   1020 AT TIME STEP     50, STRESS PERIOD      2
 UBDSV1 SAVING     FLOW-JA-FACE ON UNIT   1020 AT TIME STEP     50, STRESS PERIOD      2
 UBDSV06 SAVING       DATA-SPDIS IN MODEL E11              PACKAGE NPF             CONNECTED TO MODEL E11              PACKAGE NPF              ON UNIT   1020 AT TIME STEP     50, STRESS PERIOD      2
 UBDSV06 SAVING              WEL IN MODEL E11              PACKAGE E11             CONNECTED TO MODEL E11              PACKAGE WEL_0            ON UNIT   1020 AT TIME STEP     50, STRESS PERIOD      2
 UBDSV06 SAVING              GHB IN MODEL E11              PACKAGE E11             CONNECTED TO MODEL E11              PACKAGE GHB_0            ON UNIT   1020 AT TIME STEP     50, STRESS PERIOD      2
 UBDSV06 SAVING             RCHA IN MODEL E11              PACKAGE E11             CONNECTED TO MODEL E11              PACKAGE RCHA_0           ON UNIT   1020 AT TIME STEP     50, STRESS PERIOD      2
 UBDSV06 SAVING            EVTA  IN MODEL E11              PACKAGE E11             CONNECTED TO MODEL E11              PACKAGE EVTA_0           ON UNIT   1020 AT TIME STEP     50, STRESS PERIOD      2
 UBDSV06 SAVING              SFR IN MODEL E11              PACKAGE E11             CONNECTED TO MODEL E11              PACKAGE SFR_0            ON UNIT   1020 AT TIME STEP     50, STRESS PERIOD      2

 HEAD WILL BE SAVED ON UNIT 1021 AT END OF TIME STEP   50, STRESS PERIOD    2


  SFR_0 BUDGET FOR ENTIRE MODEL AT END OF TIME STEP   50, STRESS PERIOD   2
  ------------------------------------------------------------------------------

     CUMULATIVE SFR_0      L**3       RATES FOR THIS TIME STEP      L**3/T
     ------------------                 ------------------------

           IN:                                      IN:
           ---                                      ---
                 GWF =   584551530.6920                   GWF =           0.0000
            RAINFALL =           0.0000              RAINFALL =           0.0000
         EVAPORATION =           0.0000           EVAPORATION =           0.0000
              RUNOFF =           0.0000                RUNOFF =           0.0000
          EXT-INFLOW =291907800000.0000            EXT-INFLOW =         185.0000
         EXT-OUTFLOW =           0.0000           EXT-OUTFLOW =           0.0000
             STORAGE =           0.0000               STORAGE =           0.0000

            TOTAL IN =292492351530.6920              TOTAL IN =         185.0000

          OUT:                                     OUT:
          ----                                     ----
                 GWF =147325160940.8963                   GWF =         107.4714
            RAINFALL =           0.0000              RAINFALL =           0.0000
         EVAPORATION =           0.0000           EVAPORATION =           0.0000
              RUNOFF =           0.0000                RUNOFF =           0.0000
          EXT-INFLOW =           0.0000            EXT-INFLOW =           0.0000
         EXT-OUTFLOW =145167190589.7957           EXT-OUTFLOW =          77.5286
             STORAGE =           0.0000               STORAGE =           0.0000

           TOTAL OUT =292492351530.6920             TOTAL OUT =         185.0000

            IN - OUT =           0.0000              IN - OUT =           0.0000

 PERCENT DISCREPANCY =           0.00     PERCENT DISCREPANCY =           0.00



  VOLUME BUDGET FOR ENTIRE MODEL AT END OF TIME STEP   50, STRESS PERIOD   2
  ---------------------------------------------------------------------------------------------------

     CUMULATIVE VOLUME      L**3       RATES FOR THIS TIME STEP      L**3/T          PACKAGE NAME    
     ------------------                 ------------------------                     ----------------

           IN:                                      IN:
           ---                                      ---
              STO-SS =    52103091.6429                STO-SS =       4.8165E-03     STORAGE                          
              STO-SY = 29528735003.6023                STO-SY =           3.4441     STORAGE                          
                 WEL =           0.0000                   WEL =           0.0000     WEL_0                            
                 GHB =   404425504.4610                   GHB =           0.2575     GHB_0                            
                RCHA =  2830322250.0000                  RCHA =           1.7938     RCHA_0                           
                EVTA =           0.0000                  EVTA =           0.0000     EVTA_0                           
                 SFR =147325160942.4644                   SFR =         107.4714     SFR_0                            

            TOTAL IN =180140746792.1706              TOTAL IN =         112.9716

          OUT:                                     OUT:
          ----                                     ----
              STO-SS =           0.0000                STO-SS =           0.0000     STORAGE                          
              STO-SY =           0.0000                STO-SY =           0.0000     STORAGE                          
                 WEL =157788000000.0000                   WEL =         100.0000     WEL_0                            
                 GHB =   283430516.3128                   GHB =           0.1745     GHB_0                            
                RCHA =           0.0000                  RCHA =           0.0000     RCHA_0                           
                EVTA = 21484764816.5847                  EVTA =          12.7971     EVTA_0                           
                 SFR =   584551530.6124                   SFR =           0.0000     SFR_0                            

           TOTAL OUT =180140746863.5098             TOTAL OUT =         112.9716

            IN - OUT =         -71.3392              IN - OUT =      -4.6749E-08

 PERCENT DISCREPANCY =          -0.00     PERCENT DISCREPANCY =          -0.00




         TIME SUMMARY AT END OF TIME STEP   50 IN STRESS PERIOD    2
                    SECONDS     MINUTES      HOURS       DAYS        YEARS
                    -----------------------------------------------------------
   TIME STEP LENGTH 1.44676E+08 2.41127E+06  40188.      1674.5      4.5845    
 STRESS PERIOD TIME 1.57788E+09 2.62980E+07 4.38300E+05  18262.      50.000    
         TOTAL TIME 1.57788E+09 2.62980E+07 4.38300E+05  18262.      50.000    


end timestep


start timestep kper="3" kstp="1" mode="normal"


 OUTPUT CONTROL FOR STRESS PERIOD 3 IS REPEATED USING SETTINGS FROM A PREVIOUS STRESS PERIOD.


 STRESS PERIOD 3 IS TRANSIENT


 REUSING SFRS FROM LAST STRESS PERIOD

end timestep


start timestep kper="3" kstp="2" mode="normal"


end timestep


start timestep kper="3" kstp="3" mode="normal"


end timestep


start timestep kper="3" kstp="4" mode="normal"


end timestep


start timestep kper="3" kstp="5" mode="normal"


end timestep


start timestep kper="3" kstp="6" mode="normal"


end timestep


start timestep kper="3" kstp="7" mode="normal"


end timestep


start timestep kper="3" kstp="8" mode="normal"


end timestep


start timestep kper="3" kstp="9" mode="normal"


end timestep


start timestep kper="3" kstp="10" mode="normal"


end timestep


start timestep kper="3" kstp="11" mode="normal"


end timestep


start timestep kper="3" kstp="12" mode="normal"


end timestep


start timestep kper="3" kstp="13" mode="normal"


end timestep


start timestep kper="3" kstp="14" mode="normal"


end timestep


start timestep kper="3" kstp="15" mode="normal"


end timestep


start timestep kper="3" kstp="16" mode="normal"


end timestep


start timestep kper="3" kstp="17" mode="normal"


end timestep


start timestep kper="3" kstp="18" mode="normal"


end timestep


start timestep kper="3" kstp="19" mode="normal"


end timestep


start timestep kper="3" kstp="20" mode="normal"


end timestep


start timestep kper="3" kstp="21" mode="normal"


end timestep


start timestep kper="3" kstp="22" mode="normal"


end timestep


start timestep kper="3" kstp="23" mode="normal"


end timestep


start timestep kper="3" kstp="24" mode="normal"


end timestep


start timestep kper="3" kstp="25" mode="normal"


end timestep


start timestep kper="3" kstp="26" mode="normal"


end timestep


start timestep kper="3" kstp="27" mode="normal"


end timestep


start timestep kper="3" kstp="28" mode="normal"


end timestep


start timestep kper="3" kstp="29" mode="normal"


end timestep


start timestep kper="3" kstp="30" mode="normal"


end timestep


start timestep kper="3" kstp="31" mode="normal"


end timestep


start timestep kper="3" kstp="32" mode="normal"


end timestep


start timestep kper="3" kstp="33" mode="normal"


end timestep


start timestep kper="3" kstp="34" mode="normal"


end timestep


start timestep kper="3" kstp="35" mode="normal"


end timestep


start timestep kper="3" kstp="36" mode="normal"


end timestep


start timestep kper="3" kstp="37" mode="normal"


end timestep


start timestep kper="3" kstp="38" mode="normal"


end timestep


start timestep kper="3" kstp="39" mode="normal"


end timestep


start timestep kper="3" kstp="40" mode="normal"


end timestep


start timestep kper="3" kstp="41" mode="normal"


end timestep


start timestep kper="3" kstp="42" mode="normal"


end timestep


start timestep kper="3" kstp="43" mode="normal"


end timestep


start timestep kper="3" kstp="44" mode="normal"


end timestep


start timestep kper="3" kstp="45" mode="normal"


end timestep


start timestep kper="3" kstp="46" mode="normal"


end timestep


start timestep kper="3" kstp="47" mode="normal"


end timestep


start timestep kper="3" kstp="48" mode="normal"


end timestep


start timestep kper="3" kstp="49" mode="normal"


end timestep


start timestep kper="3" kstp="50" mode="normal"

 UBDSV1 SAVING           STO-SS ON UNIT   1020 AT TIME STEP     50, STRESS PERIOD      3
 UBDSV1 SAVING           STO-SY ON UNIT   1020 AT TIME STEP     50, STRESS PERIOD      3
 UBDSV1 SAVING     FLOW-JA-FACE ON UNIT   1020 AT TIME STEP     50, STRESS PERIOD      3
 UBDSV06 SAVING       DATA-SPDIS IN MODEL E11              PACKAGE NPF             CONNECTED TO MODEL E11              PACKAGE NPF              ON UNIT   1020 AT TIME STEP     50, STRESS PERIOD      3
 UBDSV06 SAVING              WEL IN MODEL E11              PACKAGE E11             CONNECTED TO MODEL E11              PACKAGE WEL_0            ON UNIT   1020 AT TIME STEP     50, STRESS PERIOD      3
 UBDSV06 SAVING              GHB IN MODEL E11              PACKAGE E11             CONNECTED TO MODEL E11              PACKAGE GHB_0            ON UNIT   1020 AT TIME STEP     50, STRESS PERIOD      3
 UBDSV06 SAVING             RCHA IN MODEL E11              PACKAGE E11             CONNECTED TO MODEL E11              PACKAGE RCHA_0           ON UNIT   1020 AT TIME STEP     50, STRESS PERIOD      3
 UBDSV06 SAVING            EVTA  IN MODEL E11              PACKAGE E11             CONNECTED TO MODEL E11              PACKAGE EVTA_0           ON UNIT   1020 AT TIME STEP     50, STRESS PERIOD      3
 UBDSV06 SAVING              SFR IN MODEL E11              PACKAGE E11             CONNECTED TO MODEL E11              PACKAGE SFR_0            ON UNIT   1020 AT TIME STEP     50, STRESS PERIOD      3

 HEAD WILL BE SAVED ON UNIT 1021 AT END OF TIME STEP   50, STRESS PERIOD    3


  SFR_0 BUDGET FOR ENTIRE MODEL AT END OF TIME STEP   50, STRESS PERIOD   3
  ------------------------------------------------------------------------------

     CUMULATIVE SFR_0      L**3       RATES FOR THIS TIME STEP      L**3/T
     ------------------                 ------------------------

           IN:                                      IN:
           ---                                      ---
                 GWF = 12790604254.5359                   GWF =          10.9097
            RAINFALL =           0.0000              RAINFALL =           0.0000
         EVAPORATION =           0.0000           EVAPORATION =           0.0000
              RUNOFF =           0.0000                RUNOFF =           0.0000
          EXT-INFLOW =583815599999.9999            EXT-INFLOW =         185.0000
         EXT-OUTFLOW =           0.0000           EXT-OUTFLOW =           0.0000
             STORAGE =           0.0000               STORAGE =           0.0000

            TOTAL IN =596606204254.5358              TOTAL IN =         195.9097

          OUT:                                     OUT:
          ----                                     ----
                 GWF =226868678461.5087                   GWF =          42.2361
            RAINFALL =           0.0000              RAINFALL =           0.0000
         EVAPORATION =           0.0000           EVAPORATION =           0.0000
              RUNOFF =           0.0000                RUNOFF =           0.0000
          EXT-INFLOW =           0.0000            EXT-INFLOW =           0.0000
         EXT-OUTFLOW =369737525793.0273           EXT-OUTFLOW =         153.6735
             STORAGE =           0.0000               STORAGE =           0.0000

           TOTAL OUT =596606204254.5360             TOTAL OUT =         195.9097

            IN - OUT =      -2.4414E-04              IN - OUT =           0.0000

 PERCENT DISCREPANCY =          -0.00     PERCENT DISCREPANCY =           0.00



  VOLUME BUDGET FOR ENTIRE MODEL AT END OF TIME STEP   50, STRESS PERIOD   3
  ---------------------------------------------------------------------------------------------------

     CUMULATIVE VOLUME      L**3       RATES FOR THIS TIME STEP      L**3/T          PACKAGE NAME    
     ------------------                 ------------------------                     ----------------

           IN:                                      IN:
           ---                                      ---
              STO-SS =    52112362.7666                STO-SS =           0.0000     STORAGE                          
              STO-SY = 29546210574.8602                STO-SY =           0.0000     STORAGE                          
                 WEL =           0.0000                   WEL =           0.0000     WEL_0                            
                 GHB =   804793650.5229                   GHB =           0.2529     GHB_0                            
                RCHA =  5660644500.0000                  RCHA =           1.7938     RCHA_0                           
                EVTA =           0.0000                  EVTA =           0.0000     EVTA_0                           
                 SFR =226868678462.6166                   SFR =          42.2361     SFR_0                            

            TOTAL IN =262932439550.7664              TOTAL IN =          44.2828

          OUT:                                     OUT:
          ----                                     ----
              STO-SS =    52111218.2275                STO-SS =       1.3645E-05     STORAGE                          
              STO-SY = 29545585364.8429                STO-SY =       7.3428E-03     STORAGE                          
                 WEL =157788000000.0000                   WEL =           0.0000     WEL_0                            
                 GHB =   592302907.1165                   GHB =           0.1995     GHB_0                            
                RCHA =           0.0000                  RCHA =           0.0000     RCHA_0                           
                EVTA = 62163835847.7018                  EVTA =          33.1663     EVTA_0                           
                 SFR = 12790604254.6864                   SFR =          10.9097     SFR_0                            

           TOTAL OUT =262932439592.5751             TOTAL OUT =          44.2828

            IN - OUT =         -41.8087              IN - OUT =       2.0414E-08

 PERCENT DISCREPANCY =          -0.00     PERCENT DISCREPANCY =           0.00




         TIME SUMMARY AT END OF TIME STEP   50 IN STRESS PERIOD    3
                    SECONDS     MINUTES      HOURS       DAYS        YEARS
                    -----------------------------------------------------------
   TIME STEP LENGTH 1.44676E+08 2.41127E+06  40188.      1674.5      4.5845    
 STRESS PERIOD TIME 1.57788E+09 2.62980E+07 4.38300E+05  18262.      50.000    
         TOTAL TIME 3.15576E+09 5.25960E+07 8.76600E+05  36525.      100.00    


end timestep

