                                   MODFLOW 6
                U.S. GEOLOGICAL SURVEY MODULAR HYDROLOGIC MODEL
                          GROUNDWATER FLOW MODEL (GWF)
                            VERSION 6.5.0 05/23/2024

   MODFLOW 6 compiled Jun 21 2024 02:57:23 with Intel(R) Fortran Intel(R) 64
   Compiler Classic for applications running on Intel(R) 64, Version 2021.7.0
                             Build 20220726_000000

This software has been approved for release by the U.S. Geological 
Survey (USGS). Although the software has been subjected to rigorous 
review, the USGS reserves the right to update the software as needed 
pursuant to further analysis and review. No warranty, expressed or 
implied, is made by the USGS or the U.S. Government as to the 
functionality of the software and related material nor shall the 
fact of release constitute any such warranty. Furthermore, the 
software is released on condition that neither the USGS nor the U.S. 
Government shall be held liable for any damages resulting from its 
authorized or unauthorized use. Also refer to the USGS Water 
Resources Software User Rights Notice for complete use, copyright, 
and distribution information.


As a work of the United States Government, this USGS product is 
in the public domain within the United States. You can copy, 
modify, distribute, and perform the work, even for commercial 
purposes, all without asking permission. Additionally, USGS 
waives copyright and related rights in the work worldwide 
through CC0 1.0 Universal Public Domain Dedication 
(https://creativecommons.org/publicdomain/zero/1.0/).

The following GNU Lesser General Public License (LGPL) libraries
are used in this USGS product:

    SPARSKIT version 2.0
      ilut, luson, and qsplit 
      (https://www-users.cse.umn.edu/~saad/software/SPARSKIT/)

    RCM - Reverse Cuthill McKee Ordering
      (https://people.math.sc.edu/Burkardt/f_src/rcm/rcm.html)

    BLAS - Basic Linear Algebra Subprograms Level 1
      (https://people.math.sc.edu/Burkardt/f_src/blas1_d/blas1_d.html)

    SPARSEKIT - Sparse Matrix Utility Package
      amux, dperm, dvperm, rperm, and cperm
      (https://people.sc.fsu.edu/~jburkardt/f77_src/sparsekit/sparsekit.html)

The following BSD-3 License libraries are used in this USGS product:

    Modern Fortran DAG Library
      Copyright (c) 2018, Jacob Williams
      All rights reserved.
      (https://github.com/jacobwilliams/daglib)

MODFLOW 6 compiler options: /O2 /heap-arrays:0 /fpe:0 /traceback /nologo /fpp
/c /module:win64\mod_mf6\ /object:win64\obj_mf6\

System command used to initiate simulation:
C:\Users\gross.DESKTOP-AIRQM2M\anaconda3\envs\gmdsitut\Scripts\mf6.exe

MODFLOW was compiled using uniform precision.

Real Variables
  KIND: 8
  TINY (smallest non-zero value):    2.225074-308
  HUGE (largest value):    1.797693+308
  PRECISION: 15
  SIZE IN BITS: 64

Integer Variables
  KIND: 4
  HUGE (largest value): 2147483647
  SIZE IN BITS: 32

Long Integer Variables
  KIND: 8
  HUGE (largest value): 9223372036854775807
  SIZE IN BITS: 64

Logical Variables
  KIND: 4
  SIZE IN BITS: 32
 
 NAMEFILE OPTIONS:
    NEWTON-RAPHSON method enabled for the model.
    FLOWS WILL BE SAVED TO BUDGET FILE SPECIFIED IN OUTPUT CONTROL
 END NAMEFILE OPTIONS:

 DIS -- STRUCTURED GRID DISCRETIZATION PACKAGE, VERSION 2 : 3/27/2014 - INPUT READ FROM MEMPATH: __INPUT__/E13/DIS                                 


 NPF -- NODE PROPERTY FLOW PACKAGE, VERSION 1, 3/30/2015 INPUT READ FROM MEMPATH: __INPUT__/E13/NPF                                 


 IC -- Initial Conditions Package, Version 8, 3/28/2015 input read from mempath: __INPUT__/E13/IC                                  


 Setting Discretization Options
    Model length unit [0=UND, 1=FEET, 2=METERS, 3=CENTIMETERS] set as 1
 End Setting Discretization Options

 Setting Discretization Dimensions
    NLAY = 2
    NROW = 15
    NCOL = 10
 End Setting Discretization Dimensions

 Setting Discretization Griddata
    DELR set from input file
    DELC set from input file
    TOP set from input file
    BOTM set from input file
    IDOMAIN set from input file
 End Setting Discretization Griddata


 The specified IDOMAIN results in a reduced number of cells.
 Number of user nodes: 300
 Number of nodes in solution: 216


 Setting NPF Options
    Alternative cell averaging [1=logarithmic, 2=AMT-LMK, 3=AMT-HMK] set to: 3
    Specific discharge will be calculated at cell centers and written to DATA-SPDIS in budget file when requested.
 End Setting NPF Options

 Setting NPF Griddata
    ICELLTYPE set from input file
    K set from input file
    K33 set from input file
    K22 not provided.  Setting K22 = K.
 End Setting NPF Griddata


 WEL   -- WEL PACKAGE, VERSION 8, 2/22/2014 INPUT READ FROM MEMPATH: __INPUT__/E13/WEL-1                               

 PROCESSING WEL BASE OPTIONS
    FLOWS WILL BE SAVED TO BUDGET FILE SPECIFIED IN OUTPUT CONTROL
    LISTS OF WEL CELLS WILL BE PRINTED.
    WEL FLOWS WILL BE PRINTED TO LISTING FILE.
 END OF WEL BASE OPTIONS

 PROCESSING WEL OPTIONS
    MOVER OPTION ENABLED
 END OF WEL OPTIONS

 PROCESSING WEL BASE DIMENSIONS
    MAXBOUND =      10
 END OF WEL BASE DIMENSIONS

 GHB   -- GHB PACKAGE, VERSION 8, 2/22/2014 INPUT READ FROM MEMPATH: __INPUT__/E13/GHB_0                               

 PROCESSING GHB BASE OPTIONS
 END OF GHB BASE OPTIONS

 PROCESSING GHB OPTIONS
 END OF GHB OPTIONS

 PROCESSING GHB BASE DIMENSIONS
    MAXBOUND =       2
 END OF GHB BASE DIMENSIONS

 SFR   -- SFR PACKAGE, VERSION 8, 2/22/2014 INPUT READ FROM UNIT 1012
 # File generated by Flopy version 3.8.2 on 11/13/2025 at 07:52:39.

 PROCESSING SFR OPTIONS
    SFR BOUNDARIES HAVE NAMES IN LAST COLUMN.
    SFR STAGES WILL BE PRINTED TO LISTING FILE.
    SFR FLOWS WILL BE PRINTED TO LISTING FILE.
    FLOWS WILL BE SAVED TO BUDGET FILE SPECIFIED IN OUTPUT CONTROL

 OPENED e13.sfr.bud
 FILE TYPE:DATA(BINARY)   UNIT 1017   STATUS:REPLACE             
 FORMAT:UNFORMATTED            ACCESS:STREAM              
 ACTION:READWRITE           

    SFR  BUDGET  WILL BE SAVED TO FILE: e13.sfr.bud
    OPENED ON UNIT: 1017

 OPENED e13.sfr.obs
 FILE TYPE:OBS   UNIT 1018   STATUS:OLD                 
 FORMAT:FORMATTED              ACCESS:SEQUENTIAL          
 ACTION:READ                

    MOVER OPTION ENABLED
    MAXIMUM DEPTH CHANGE VALUE (.1000000000000000E-05) SPECIFIED.
    LENGTH CONVERSION VALUE (3.280810000000000) SPECIFIED.
 END OF SFR OPTIONS

 PROCESSING SFR DIMENSIONS
    NREACHES = 31
 END OF SFR DIMENSIONS

 PROCESSING SFR PACKAGEDATA
 END OF SFR PACKAGEDATA

 PROCESSING SFR CONNECTIONDATA
 END OF SFR CONNECTIONDATA

 PROCESSING SFR DIVERSIONS
 END OF SFR DIVERSIONS

 LAK   -- LAK PACKAGE, VERSION 8, 2/22/2014 INPUT READ FROM UNIT 1013
 # File generated by Flopy version 3.8.2 on 11/13/2025 at 07:52:39.

 PROCESSING LAK OPTIONS
    LAK STAGES WILL BE PRINTED TO LISTING FILE.
    LAK FLOWS WILL BE PRINTED TO LISTING FILE.
    FLOWS WILL BE SAVED TO BUDGET FILE SPECIFIED IN OUTPUT CONTROL

 OPENED e13.lak.bud
 FILE TYPE:DATA(BINARY)   UNIT 1019   STATUS:REPLACE             
 FORMAT:UNFORMATTED            ACCESS:STREAM              
 ACTION:READWRITE           

    LAK  BUDGET  WILL BE SAVED TO FILE: e13.lak.bud
    OPENED ON UNIT: 1019

 OPENED e13.lak.obs
 FILE TYPE:OBS   UNIT 1020   STATUS:OLD                 
 FORMAT:FORMATTED              ACCESS:SEQUENTIAL          
 ACTION:READ                

    MOVER OPTION ENABLED
    LENGTH CONVERSION VALUE (   3.280810    ) SPECIFIED.
 END OF LAK OPTIONS

 PROCESSING LAK DIMENSIONS
    NLAKES =       2
    NOUTLETS =       2
 END OF LAK DIMENSIONS

 PROCESSING LAK PACKAGEDATA
 END OF LAK PACKAGEDATA


    MAXBOUND =      38

 PROCESSING LAK LAKE_CONNECTIONS
 END OF LAK CONNECTIONDATA

 PROCESSING LAK OUTLETS
 END OF LAK OUTLETS

 UZF   -- UZF CELLS PACKAGE, VERSION 8, 2/22/2014 INPUT READ FROM UNIT 1014
 # File generated by Flopy version 3.8.2 on 11/13/2025 at 07:52:39.

 PROCESSING UZF CELLS OPTIONS
    UZF CELLS BOUNDARIES HAVE NAMES IN LAST COLUMN.
    FLOWS WILL BE SAVED TO BUDGET FILE SPECIFIED IN OUTPUT CONTROL

 OPENED e13.uzf.bud
 FILE TYPE:DATA(BINARY)   UNIT 1021   STATUS:REPLACE             
 FORMAT:UNFORMATTED            ACCESS:STREAM              
 ACTION:READWRITE           

    UZF  BUDGET  WILL BE SAVED TO FILE: e13.uzf.bud
    OPENED ON UNIT: 1021

 OPENED e13.uzf.obs
 FILE TYPE:OBS   UNIT 1022   STATUS:OLD                 
 FORMAT:FORMATTED              ACCESS:SEQUENTIAL          
 ACTION:READ                

    ET WILL BE SIMULATED WITHIN UZ AND GW ZONES, WITH LINEAR GWET IF OPTION NOT SPECIFIED OTHERWISE.
    GROUNDWATER ET FUNCTION WILL BE LINEAR.
    GROUNDWATER DISCHARGE TO LAND SURFACE WILL BE SIMULATED.
 END OF UZF CELLS OPTIONS

 PROCESSING UZF CELLS DIMENSIONS
    NUZFCELLS = 200
    NTRAILWAVES = 10
    NTRAILSETS = 50
 END OF UZF CELLS DIMENSIONS

 PROCESSING UZF CELLS PACKAGEDATA
    STRT set from input file

 STO -- STORAGE PACKAGE, VERSION 1, 5/19/2014 INPUT READ FROM UNIT 1006


 # File generated by Flopy version 3.8.2 on 11/13/2025 at 07:52:39.
 PROCESSING STORAGE OPTIONS
 END OF STORAGE OPTIONS
 PROCESSING GRIDDATA

                 ICONVERT = 1

         SPECIFIC STORAGE =  0.1000000E-05
 END PROCESSING GRIDDATA

 MVR -- WATER MOVER PACKAGE, VERSION 8, 1/29/2016 INPUT READ FROM UNIT 1008
 # File generated by Flopy version 3.8.2 on 11/13/2025 at 07:52:39.
 PROCESSING MVR OPTIONS
    LISTS OF WATER MOVER FLOWS WILL BE PRINTED TO LIST FILE.

 OPENED e13.mvr.bud
 FILE TYPE:DATA(BINARY)   UNIT 1023   STATUS:REPLACE             
 FORMAT:UNFORMATTED            ACCESS:STREAM              
 ACTION:READWRITE           

    MVR  BUDGET  WILL BE SAVED TO FILE: e13.mvr.bud
    OPENED ON UNIT: 1023
 END OF MVR OPTIONS

 PROCESSING MVR DIMENSIONS
    MAXMVR = 200
    MAXPACKAGES = 4
 END OF MVR DIMENSIONS

 PROCESSING MVR PACKAGES
   INCLUDING PACKAGE: E13/UZF-1
   INCLUDING PACKAGE: E13/SFR-1
   INCLUDING PACKAGE: E13/LAK-1
   INCLUDING PACKAGE: E13/WEL-1
 END OF MVR PACKAGES
    BINARY GRID INFORMATION WILL BE WRITTEN TO:
      UNIT NUMBER: 1024
      FILE NAME: e13.dis.grb

 OPENED e13.dis.grb
 FILE TYPE:DATA(BINARY)   UNIT 1024   STATUS:REPLACE             
 FORMAT:UNFORMATTED            ACCESS:STREAM              
 ACTION:READWRITE           

      THE LAST TIME STEP WILL BE PRINTED
      THE LAST TIME STEP WILL BE PRINTED
 # File generated by Flopy version 3.8.2 on 11/13/2025 at 07:52:39.

 PROCESSING OC OPTIONS

    BUDGET INFORMATION WILL BE WRITTEN TO:
      UNIT NUMBER: 1025
      FILE NAME: e13.cbc

 OPENED e13.cbc
 FILE TYPE:DATA(BINARY)   UNIT 1025   STATUS:REPLACE             
 FORMAT:UNFORMATTED            ACCESS:STREAM              
 ACTION:READWRITE           

    HEAD INFORMATION WILL BE WRITTEN TO:
      UNIT NUMBER: 1026
      FILE NAME: e13.hds

 OPENED e13.hds
 FILE TYPE:DATA(BINARY)   UNIT 1026   STATUS:REPLACE             
 FORMAT:UNFORMATTED            ACCESS:STREAM              
 ACTION:READWRITE           

 END OF OC OPTIONS

The observation utility is active for "SFR-1"
 # File generated by Flopy version 3.8.2 on 11/13/2025 at 07:52:39.

Processing observation options:

Text output number of digits of precision set to: 10
The PRINT_INPUT option has been specified.


 OBSERVATIONS READ FROM FILE "e13.sfr.obs"
 ----------------------------------------------------------------------------------------------------------------------------------------------------------------------------------------------------------------------------
 NAME                                     TYPE                                       TIME         LOCATION DATA                              OUTPUT FILENAME                                                                 
 ----------------------------------------------------------------------------------------------------------------------------------------------------------------------------------------------------------------------------
 EXTIN                                    CONTINUOUS  EXT-INFLOW                     ALL TIMES    "  allreaches"                             sfr.allreaches.csv                                                              
 INFLOW                                   CONTINUOUS  INFLOW                         ALL TIMES    "  allreaches"                             sfr.allreaches.csv                                                              
 FROMMVR                                  CONTINUOUS  FROM-MVR                       ALL TIMES    "  allreaches"                             sfr.allreaches.csv                                                              
 GWF                                      CONTINUOUS  SFR                            ALL TIMES    "  allreaches"                             sfr.allreaches.csv                                                              
 OUTFLOW                                  CONTINUOUS  OUTFLOW                        ALL TIMES    "  allreaches"                             sfr.allreaches.csv                                                              
 EXTOUT                                   CONTINUOUS  EXT-OUTFLOW                    ALL TIMES    "  allreaches"                             sfr.allreaches.csv                                                              
 TOMVR                                    CONTINUOUS  TO-MVR                         ALL TIMES    "  allreaches"                             sfr.allreaches.csv                                                              
 EXTIN                                    CONTINUOUS  EXT-INFLOW                     ALL TIMES    "  1"                                      sfr.reach01.csv                                                                 
 INFLOW                                   CONTINUOUS  INFLOW                         ALL TIMES    "  1"                                      sfr.reach01.csv                                                                 
 FROMMVR                                  CONTINUOUS  FROM-MVR                       ALL TIMES    "  1"                                      sfr.reach01.csv                                                                 
 GWF                                      CONTINUOUS  SFR                            ALL TIMES    "  1"                                      sfr.reach01.csv                                                                 
 OUTFLOW                                  CONTINUOUS  OUTFLOW                        ALL TIMES    "  1"                                      sfr.reach01.csv                                                                 
 EXTOUT                                   CONTINUOUS  EXT-OUTFLOW                    ALL TIMES    "  1"                                      sfr.reach01.csv                                                                 
 TOMVR                                    CONTINUOUS  TO-MVR                         ALL TIMES    "  1"                                      sfr.reach01.csv                                                                 
 EXTIN                                    CONTINUOUS  EXT-INFLOW                     ALL TIMES    "  24"                                     sfr.reach24.csv                                                                 
 INFLOW                                   CONTINUOUS  INFLOW                         ALL TIMES    "  24"                                     sfr.reach24.csv                                                                 
 FROMMVR                                  CONTINUOUS  FROM-MVR                       ALL TIMES    "  24"                                     sfr.reach24.csv                                                                 
 GWF                                      CONTINUOUS  SFR                            ALL TIMES    "  24"                                     sfr.reach24.csv                                                                 
 OUTFLOW                                  CONTINUOUS  OUTFLOW                        ALL TIMES    "  24"                                     sfr.reach24.csv                                                                 
 EXTOUT                                   CONTINUOUS  EXT-OUTFLOW                    ALL TIMES    "  24"                                     sfr.reach24.csv                                                                 
 TOMVR                                    CONTINUOUS  TO-MVR                         ALL TIMES    "  24"                                     sfr.reach24.csv                                                                 
 EXTIN                                    CONTINUOUS  EXT-INFLOW                     ALL TIMES    "  29"                                     sfr.reach29.csv                                                                 
 INFLOW                                   CONTINUOUS  INFLOW                         ALL TIMES    "  29"                                     sfr.reach29.csv                                                                 
 FROMMVR                                  CONTINUOUS  FROM-MVR                       ALL TIMES    "  29"                                     sfr.reach29.csv                                                                 
 GWF                                      CONTINUOUS  SFR                            ALL TIMES    "  29"                                     sfr.reach29.csv                                                                 
 OUTFLOW                                  CONTINUOUS  OUTFLOW                        ALL TIMES    "  29"                                     sfr.reach29.csv                                                                 
 EXTOUT                                   CONTINUOUS  EXT-OUTFLOW                    ALL TIMES    "  29"                                     sfr.reach29.csv                                                                 
 TOMVR                                    CONTINUOUS  TO-MVR                         ALL TIMES    "  29"                                     sfr.reach29.csv                                                                 
 EXTIN                                    CONTINUOUS  EXT-INFLOW                     ALL TIMES    "  31"                                     sfr.reach31.csv                                                                 
 INFLOW                                   CONTINUOUS  INFLOW                         ALL TIMES    "  31"                                     sfr.reach31.csv                                                                 
 FROMMVR                                  CONTINUOUS  FROM-MVR                       ALL TIMES    "  31"                                     sfr.reach31.csv                                                                 
 GWF                                      CONTINUOUS  SFR                            ALL TIMES    "  31"                                     sfr.reach31.csv                                                                 
 OUTFLOW                                  CONTINUOUS  OUTFLOW                        ALL TIMES    "  31"                                     sfr.reach31.csv                                                                 
 EXTOUT                                   CONTINUOUS  EXT-OUTFLOW                    ALL TIMES    "  31"                                     sfr.reach31.csv                                                                 
 TOMVR                                    CONTINUOUS  TO-MVR                         ALL TIMES    "  31"                                     sfr.reach31.csv                                                                 
 S01                                      CONTINUOUS  STAGE                          ALL TIMES    "  1"                                      sfr.stage.csv                                                                   
 S24                                      CONTINUOUS  STAGE                          ALL TIMES    "  24"                                     sfr.stage.csv                                                                   
 S29                                      CONTINUOUS  STAGE                          ALL TIMES    "  29"                                     sfr.stage.csv                                                                   
 S31                                      CONTINUOUS  STAGE                          ALL TIMES    "  31"                                     sfr.stage.csv                                                                   
 ----------------------------------------------------------------------------------------------------------------------------------------------------------------------------------------------------------------------------


 SFR PACKAGE (SFR-1) CONVERSION DATA
    UNIT CONVERSION VALUE (1.485914064252526).


The observation utility is active for "LAK-1"
 # File generated by Flopy version 3.8.2 on 11/13/2025 at 07:52:39.

Processing observation options:

Text output number of digits of precision set to: 10


The observation utility is active for "UZF-1"
 # File generated by Flopy version 3.8.2 on 11/13/2025 at 07:52:39.

Processing observation options:

The PRINT_INPUT option has been specified.


 OBSERVATIONS READ FROM FILE "e13.uzf.obs"
 ----------------------------------------------------------------------------------------------------------------------------------------------------------------------------------------------------------------------------
 NAME                                     TYPE                                       TIME         LOCATION DATA                              OUTPUT FILENAME                                                                 
 ----------------------------------------------------------------------------------------------------------------------------------------------------------------------------------------------------------------------------
 NINFIL                                   CONTINUOUS  NET-INFILTRATION               ALL TIMES    "  ag"                                     obs_uzf.csv                                                                     
 REJINF                                   CONTINUOUS  REJ-INF                        ALL TIMES    "  ag"                                     obs_uzf.csv                                                                     
 REJINFMVR                                CONTINUOUS  REJ-INF-TO-MVR                 ALL TIMES    "  ag"                                     obs_uzf.csv                                                                     
 INFIL                                    CONTINUOUS  INFILTRATION                   ALL TIMES    "  ag"                                     obs_uzf.csv                                                                     
 FROMMVR                                  CONTINUOUS  FROM-MVR                       ALL TIMES    "  ag"                                     obs_uzf.csv                                                                     
 GWRCH                                    CONTINUOUS  UZF-GWRCH                      ALL TIMES    "  ag"                                     obs_uzf.csv                                                                     
 GWET                                     CONTINUOUS  UZF-GWET                       ALL TIMES    "  ag"                                     obs_uzf.csv                                                                     
 UZET                                     CONTINUOUS  UZET                           ALL TIMES    "  ag"                                     obs_uzf.csv                                                                     
 ID26_INFIL                               CONTINUOUS  INFILTRATION                   ALL TIMES    "  26"                                     obs_uzf_column.csv                                                              
 ID126_INFIL                              CONTINUOUS  INFILTRATION                   ALL TIMES    "  126"                                    obs_uzf_column.csv                                                              
 ID26_DPTH=20                             CONTINUOUS  WATER-CONTENT                  ALL TIMES    "  26  20.0"                               obs_uzf_column.csv                                                              
 ID126_DPTH=51                            CONTINUOUS  WATER-CONTENT                  ALL TIMES    "  126  1.0"                               obs_uzf_column.csv                                                              
 ID26_RCH                                 CONTINUOUS  UZF-GWRCH                      ALL TIMES    "  26"                                     obs_uzf_column.csv                                                              
 ID126_RCH                                CONTINUOUS  UZF-GWRCH                      ALL TIMES    "  126"                                    obs_uzf_column.csv                                                              
 ID26_GWET                                CONTINUOUS  UZF-GWET                       ALL TIMES    "  26"                                     obs_uzf_column.csv                                                              
 ID126_GWET                               CONTINUOUS  UZF-GWET                       ALL TIMES    "  126"                                    obs_uzf_column.csv                                                              
 ID26_UZET                                CONTINUOUS  UZET                           ALL TIMES    "  26"                                     obs_uzf_column.csv                                                              
 ID126_UZET                               CONTINUOUS  UZET                           ALL TIMES    "  126"                                    obs_uzf_column.csv                                                              
 ID26_GWD2MVR                             CONTINUOUS  UZF-GWD-TO-MVR                 ALL TIMES    "  26"                                     obs_uzf_column.csv                                                              
 ID126_GWD2MVR                            CONTINUOUS  UZF-GWD-TO-MVR                 ALL TIMES    "  126"                                    obs_uzf_column.csv                                                              
 ID26_REJINF                              CONTINUOUS  REJ-INF-TO-MVR                 ALL TIMES    "  26"                                     obs_uzf_column.csv                                                              
 ID126_REJINF                             CONTINUOUS  REJ-INF-TO-MVR                 ALL TIMES    "  126"                                    obs_uzf_column.csv                                                              
 ----------------------------------------------------------------------------------------------------------------------------------------------------------------------------------------------------------------------------



start timestep kper="1" kstp="1" mode="normal"


 BEGIN READING OUTPUT CONTROL FOR STRESS PERIOD 1
      THE LAST TIME STEP WILL BE SAVED
      THE LAST TIME STEP WILL BE SAVED

 END READING OUTPUT CONTROL FOR STRESS PERIOD 1


 PROCESSING STORAGE PERIOD DATA
 END PROCESSING STORAGE PERIOD DATA


 STRESS PERIOD 1 IS STEADY-STATE


  READING WATER MOVERS FOR PERIOD 1

 END OF DATA FOR PERIOD      1

    114 MOVERS READ FOR PERIOD 1
 ----------------------------------
  WEL NO.    LAYER    ROW     COL  
 ----------------------------------
     1         1       4       8   
     2         1       4       9   
     3         1       5       8   
     4         1       5       9   
     5         1       6       6   
     6         1       6       7   
     7         1       7       4   
     8         1       7       5   
     9         1       8       2   
     10        1       8       3   
 ----------------------------------


 UBDSV1 SAVING           STO-SS ON UNIT   1025 AT TIME STEP      1, STRESS PERIOD      1
 UBDSV1 SAVING           STO-SY ON UNIT   1025 AT TIME STEP      1, STRESS PERIOD      1
 UBDSV1 SAVING     FLOW-JA-FACE ON UNIT   1025 AT TIME STEP      1, STRESS PERIOD      1
 UBDSV06 SAVING       DATA-SPDIS IN MODEL E13              PACKAGE NPF             CONNECTED TO MODEL E13              PACKAGE NPF              ON UNIT   1025 AT TIME STEP      1, STRESS PERIOD      1
 UBDSV06 SAVING              WEL IN MODEL E13              PACKAGE E13             CONNECTED TO MODEL E13              PACKAGE WEL-1            ON UNIT   1025 AT TIME STEP      1, STRESS PERIOD      1
 UBDSV06 SAVING       WEL-TO-MVR IN MODEL E13              PACKAGE E13             CONNECTED TO MODEL E13              PACKAGE WEL-1            ON UNIT   1025 AT TIME STEP      1, STRESS PERIOD      1
 UBDSV06 SAVING              GHB IN MODEL E13              PACKAGE E13             CONNECTED TO MODEL E13              PACKAGE GHB_0            ON UNIT   1025 AT TIME STEP      1, STRESS PERIOD      1
 UBDSV06 SAVING              SFR IN MODEL E13              PACKAGE E13             CONNECTED TO MODEL E13              PACKAGE SFR-1            ON UNIT   1025 AT TIME STEP      1, STRESS PERIOD      1
 UBDSV06 SAVING              LAK IN MODEL E13              PACKAGE E13             CONNECTED TO MODEL E13              PACKAGE LAK-1            ON UNIT   1025 AT TIME STEP      1, STRESS PERIOD      1
 UBDSV06 SAVING        UZF-GWRCH IN MODEL E13              PACKAGE E13             CONNECTED TO MODEL E13              PACKAGE UZF-1            ON UNIT   1025 AT TIME STEP      1, STRESS PERIOD      1
 UBDSV06 SAVING          UZF-GWD IN MODEL E13              PACKAGE E13             CONNECTED TO MODEL E13              PACKAGE UZF-1            ON UNIT   1025 AT TIME STEP      1, STRESS PERIOD      1
 UBDSV06 SAVING   UZF-GWD TO-MVR IN MODEL E13              PACKAGE E13             CONNECTED TO MODEL E13              PACKAGE UZF-1            ON UNIT   1025 AT TIME STEP      1, STRESS PERIOD      1
 UBDSV06 SAVING         UZF-GWET IN MODEL E13              PACKAGE E13             CONNECTED TO MODEL E13              PACKAGE UZF-1            ON UNIT   1025 AT TIME STEP      1, STRESS PERIOD      1
 UBDSV06 SAVING     FLOW-JA-FACE IN MODEL E13              PACKAGE SFR-1           CONNECTED TO MODEL E13              PACKAGE SFR-1            ON UNIT   1017 AT TIME STEP      1, STRESS PERIOD      1
 UBDSV06 SAVING              GWF IN MODEL E13              PACKAGE SFR-1           CONNECTED TO MODEL E13              PACKAGE E13              ON UNIT   1017 AT TIME STEP      1, STRESS PERIOD      1
 UBDSV06 SAVING         RAINFALL IN MODEL E13              PACKAGE SFR-1           CONNECTED TO MODEL E13              PACKAGE SFR-1            ON UNIT   1017 AT TIME STEP      1, STRESS PERIOD      1
 UBDSV06 SAVING      EVAPORATION IN MODEL E13              PACKAGE SFR-1           CONNECTED TO MODEL E13              PACKAGE SFR-1            ON UNIT   1017 AT TIME STEP      1, STRESS PERIOD      1
 UBDSV06 SAVING           RUNOFF IN MODEL E13              PACKAGE SFR-1           CONNECTED TO MODEL E13              PACKAGE SFR-1            ON UNIT   1017 AT TIME STEP      1, STRESS PERIOD      1
 UBDSV06 SAVING       EXT-INFLOW IN MODEL E13              PACKAGE SFR-1           CONNECTED TO MODEL E13              PACKAGE SFR-1            ON UNIT   1017 AT TIME STEP      1, STRESS PERIOD      1
 UBDSV06 SAVING      EXT-OUTFLOW IN MODEL E13              PACKAGE SFR-1           CONNECTED TO MODEL E13              PACKAGE SFR-1            ON UNIT   1017 AT TIME STEP      1, STRESS PERIOD      1
 UBDSV06 SAVING          STORAGE IN MODEL E13              PACKAGE SFR-1           CONNECTED TO MODEL E13              PACKAGE SFR-1            ON UNIT   1017 AT TIME STEP      1, STRESS PERIOD      1
 UBDSV06 SAVING         FROM-MVR IN MODEL E13              PACKAGE SFR-1           CONNECTED TO MODEL E13              PACKAGE SFR-1            ON UNIT   1017 AT TIME STEP      1, STRESS PERIOD      1
 UBDSV06 SAVING           TO-MVR IN MODEL E13              PACKAGE SFR-1           CONNECTED TO MODEL E13              PACKAGE SFR-1            ON UNIT   1017 AT TIME STEP      1, STRESS PERIOD      1
 UBDSV06 SAVING              GWF IN MODEL E13              PACKAGE LAK-1           CONNECTED TO MODEL E13              PACKAGE E13              ON UNIT   1019 AT TIME STEP      1, STRESS PERIOD      1
 UBDSV06 SAVING         RAINFALL IN MODEL E13              PACKAGE LAK-1           CONNECTED TO MODEL E13              PACKAGE LAK-1            ON UNIT   1019 AT TIME STEP      1, STRESS PERIOD      1
 UBDSV06 SAVING      EVAPORATION IN MODEL E13              PACKAGE LAK-1           CONNECTED TO MODEL E13              PACKAGE LAK-1            ON UNIT   1019 AT TIME STEP      1, STRESS PERIOD      1
 UBDSV06 SAVING           RUNOFF IN MODEL E13              PACKAGE LAK-1           CONNECTED TO MODEL E13              PACKAGE LAK-1            ON UNIT   1019 AT TIME STEP      1, STRESS PERIOD      1
 UBDSV06 SAVING       EXT-INFLOW IN MODEL E13              PACKAGE LAK-1           CONNECTED TO MODEL E13              PACKAGE LAK-1            ON UNIT   1019 AT TIME STEP      1, STRESS PERIOD      1
 UBDSV06 SAVING       WITHDRAWAL IN MODEL E13              PACKAGE LAK-1           CONNECTED TO MODEL E13              PACKAGE LAK-1            ON UNIT   1019 AT TIME STEP      1, STRESS PERIOD      1
 UBDSV06 SAVING      EXT-OUTFLOW IN MODEL E13              PACKAGE LAK-1           CONNECTED TO MODEL E13              PACKAGE LAK-1            ON UNIT   1019 AT TIME STEP      1, STRESS PERIOD      1
 UBDSV06 SAVING          STORAGE IN MODEL E13              PACKAGE LAK-1           CONNECTED TO MODEL E13              PACKAGE LAK-1            ON UNIT   1019 AT TIME STEP      1, STRESS PERIOD      1
 UBDSV06 SAVING         CONSTANT IN MODEL E13              PACKAGE LAK-1           CONNECTED TO MODEL E13              PACKAGE LAK-1            ON UNIT   1019 AT TIME STEP      1, STRESS PERIOD      1
 UBDSV06 SAVING         FROM-MVR IN MODEL E13              PACKAGE LAK-1           CONNECTED TO MODEL E13              PACKAGE LAK-1            ON UNIT   1019 AT TIME STEP      1, STRESS PERIOD      1
 UBDSV06 SAVING           TO-MVR IN MODEL E13              PACKAGE LAK-1           CONNECTED TO MODEL E13              PACKAGE LAK-1            ON UNIT   1019 AT TIME STEP      1, STRESS PERIOD      1
 UBDSV06 SAVING     FLOW-JA-FACE IN MODEL E13              PACKAGE UZF-1           CONNECTED TO MODEL E13              PACKAGE UZF-1            ON UNIT   1021 AT TIME STEP      1, STRESS PERIOD      1
 UBDSV06 SAVING              GWF IN MODEL E13              PACKAGE UZF-1           CONNECTED TO MODEL E13              PACKAGE E13              ON UNIT   1021 AT TIME STEP      1, STRESS PERIOD      1
 UBDSV06 SAVING     INFILTRATION IN MODEL E13              PACKAGE UZF-1           CONNECTED TO MODEL E13              PACKAGE UZF-1            ON UNIT   1021 AT TIME STEP      1, STRESS PERIOD      1
 UBDSV06 SAVING          REJ-INF IN MODEL E13              PACKAGE UZF-1           CONNECTED TO MODEL E13              PACKAGE UZF-1            ON UNIT   1021 AT TIME STEP      1, STRESS PERIOD      1
 UBDSV06 SAVING             UZET IN MODEL E13              PACKAGE UZF-1           CONNECTED TO MODEL E13              PACKAGE UZF-1            ON UNIT   1021 AT TIME STEP      1, STRESS PERIOD      1
 UBDSV06 SAVING          STORAGE IN MODEL E13              PACKAGE UZF-1           CONNECTED TO MODEL E13              PACKAGE UZF-1            ON UNIT   1021 AT TIME STEP      1, STRESS PERIOD      1
 UBDSV06 SAVING         FROM-MVR IN MODEL E13              PACKAGE UZF-1           CONNECTED TO MODEL E13              PACKAGE UZF-1            ON UNIT   1021 AT TIME STEP      1, STRESS PERIOD      1
 UBDSV06 SAVING   REJ-INF-TO-MVR IN MODEL E13              PACKAGE UZF-1           CONNECTED TO MODEL E13              PACKAGE UZF-1            ON UNIT   1021 AT TIME STEP      1, STRESS PERIOD      1
 UBDSV06 SAVING       MOVER-FLOW IN MODEL E13              PACKAGE UZF-1           CONNECTED TO MODEL E13              PACKAGE UZF-1            ON UNIT   1023 AT TIME STEP      1, STRESS PERIOD      1
 UBDSV06 SAVING       MOVER-FLOW IN MODEL E13              PACKAGE UZF-1           CONNECTED TO MODEL E13              PACKAGE SFR-1            ON UNIT   1023 AT TIME STEP      1, STRESS PERIOD      1
 UBDSV06 SAVING       MOVER-FLOW IN MODEL E13              PACKAGE UZF-1           CONNECTED TO MODEL E13              PACKAGE LAK-1            ON UNIT   1023 AT TIME STEP      1, STRESS PERIOD      1
 UBDSV06 SAVING       MOVER-FLOW IN MODEL E13              PACKAGE UZF-1           CONNECTED TO MODEL E13              PACKAGE WEL-1            ON UNIT   1023 AT TIME STEP      1, STRESS PERIOD      1
 UBDSV06 SAVING       MOVER-FLOW IN MODEL E13              PACKAGE SFR-1           CONNECTED TO MODEL E13              PACKAGE UZF-1            ON UNIT   1023 AT TIME STEP      1, STRESS PERIOD      1
 UBDSV06 SAVING       MOVER-FLOW IN MODEL E13              PACKAGE SFR-1           CONNECTED TO MODEL E13              PACKAGE SFR-1            ON UNIT   1023 AT TIME STEP      1, STRESS PERIOD      1
 UBDSV06 SAVING       MOVER-FLOW IN MODEL E13              PACKAGE SFR-1           CONNECTED TO MODEL E13              PACKAGE LAK-1            ON UNIT   1023 AT TIME STEP      1, STRESS PERIOD      1
 UBDSV06 SAVING       MOVER-FLOW IN MODEL E13              PACKAGE SFR-1           CONNECTED TO MODEL E13              PACKAGE WEL-1            ON UNIT   1023 AT TIME STEP      1, STRESS PERIOD      1
 UBDSV06 SAVING       MOVER-FLOW IN MODEL E13              PACKAGE LAK-1           CONNECTED TO MODEL E13              PACKAGE UZF-1            ON UNIT   1023 AT TIME STEP      1, STRESS PERIOD      1
 UBDSV06 SAVING       MOVER-FLOW IN MODEL E13              PACKAGE LAK-1           CONNECTED TO MODEL E13              PACKAGE SFR-1            ON UNIT   1023 AT TIME STEP      1, STRESS PERIOD      1
 UBDSV06 SAVING       MOVER-FLOW IN MODEL E13              PACKAGE LAK-1           CONNECTED TO MODEL E13              PACKAGE LAK-1            ON UNIT   1023 AT TIME STEP      1, STRESS PERIOD      1
 UBDSV06 SAVING       MOVER-FLOW IN MODEL E13              PACKAGE LAK-1           CONNECTED TO MODEL E13              PACKAGE WEL-1            ON UNIT   1023 AT TIME STEP      1, STRESS PERIOD      1
 UBDSV06 SAVING       MOVER-FLOW IN MODEL E13              PACKAGE WEL-1           CONNECTED TO MODEL E13              PACKAGE UZF-1            ON UNIT   1023 AT TIME STEP      1, STRESS PERIOD      1
 UBDSV06 SAVING       MOVER-FLOW IN MODEL E13              PACKAGE WEL-1           CONNECTED TO MODEL E13              PACKAGE SFR-1            ON UNIT   1023 AT TIME STEP      1, STRESS PERIOD      1
 UBDSV06 SAVING       MOVER-FLOW IN MODEL E13              PACKAGE WEL-1           CONNECTED TO MODEL E13              PACKAGE LAK-1            ON UNIT   1023 AT TIME STEP      1, STRESS PERIOD      1
 UBDSV06 SAVING       MOVER-FLOW IN MODEL E13              PACKAGE WEL-1           CONNECTED TO MODEL E13              PACKAGE WEL-1            ON UNIT   1023 AT TIME STEP      1, STRESS PERIOD      1

 WEL PACKAGE (WEL-1) FLOW RATES   PERIOD      1   STEP        1
 -----------------------------------------------
   NUMBER   CELLID                    RATE      
 -----------------------------------------------
     1      (1,6,4)               0.0000000     
     2      (1,6,5)               0.0000000     
     3      (1,7,4)               0.0000000     
     4      (1,7,5)               0.0000000     
     5      (1,8,4)               0.0000000     
     6      (1,8,5)               0.0000000     
     7      (1,9,4)               0.0000000     
     8      (1,9,5)               0.0000000     
     9      (1,10,4)              0.0000000     
     10     (1,10,5)              0.0000000     
 -----------------------------------------------




 WEL PACKAGE (WEL-1) FLOW RATES TO-MVR   PERIOD      1   STEP        1
 -----------------------------------------------
   NUMBER   CELLID                    RATE      
 -----------------------------------------------
     1      (1,6,4)               0.0000000     
     2      (1,6,5)               0.0000000     
     3      (1,7,4)               0.0000000     
     4      (1,7,5)               0.0000000     
     5      (1,8,4)               0.0000000     
     6      (1,8,5)               0.0000000     
     7      (1,9,4)               0.0000000     
     8      (1,9,5)               0.0000000     
     9      (1,10,4)              0.0000000     
     10     (1,10,5)              0.0000000     
 -----------------------------------------------




 SFR PACKAGE (SFR-1) FLOW RATES   PERIOD      1   STEP        1
 ----------------------------------------------------------------------------------------
   NUMBER   CELLID                    RATE       NAME                                    
 ----------------------------------------------------------------------------------------
     1      (1,1,1)               0.22868377     ALLREACHES                              
     2      (1,2,2)               0.35499870     ALLREACHES                              
     3      (1,3,3)               0.30357347     ALLREACHES                              
     4      (1,3,4)               0.28021936     ALLREACHES                              
     5      (1,4,5)               0.29960805     ALLREACHES                              
     6      (1,5,6)               0.22987955     ALLREACHES                              
     7      (1,6,6)               0.22936563     ALLREACHES                              
     8      (1,7,6)               0.22884928     ALLREACHES                              
     9      (1,8,6)               0.22833044     ALLREACHES                              
     10     (1,3,5)               2.12214188E-02 ALLREACHES                              
     11     (1,3,6)               1.99133007E-02 ALLREACHES                              
     12     (1,3,7)               1.67956407E-02 ALLREACHES                              
     13     (1,4,8)               2.07205450E-02 ALLREACHES                              
     14     (1,5,8)               1.57905563E-02 ALLREACHES                              
     15     (1,6,8)               5.93648362E-03 ALLREACHES                              
     16     (1,5,10)              9.09197693E-02 ALLREACHES                              
     17     (1,5,9)               0.18157734     ALLREACHES                              
     18     (1,6,8)               0.12689514     ALLREACHES                              
     19     (1,6,8)               0.17138468     ALLREACHES                              
     20     (1,7,7)               0.21384773     ALLREACHES                              
     21     (1,8,7)               0.14943953     ALLREACHES                              
     22     (1,8,6)               0.10661428     ALLREACHES                              
     23     (1,9,6)               0.24837387     ALLREACHES                              
     24     (1,12,7)              2.55042451E-02 ALLREACHES                              
     25     (1,13,7)              2.80506028E-02 ALLREACHES                              
     26     (1,14,9)              2.6922030      ALLREACHES                              
     27     (1,13,8)              2.6824902      ALLREACHES                              
     28     (1,13,7)              2.6727412      ALLREACHES                              
     29     (1,13,6)             -1.3751930      ALLREACHES                              
     30     (1,13,2)             -2.7828261      ALLREACHES                              
     31     (1,13,1)             -1.3238653      ALLREACHES                              
 ----------------------------------------------------------------------------------------




 LAK PACKAGE (LAK-1) FLOW RATES   PERIOD      1   STEP        1
 -----------------------------------------------
   NUMBER   CELLID                    RATE      
 -----------------------------------------------
     1      (1,9,7)               8.36487887E-03
     2      (1,10,6)              1.07376860E-02
     3      (2,10,7)              1.0163963     
     4      (1,9,8)               5.98378427E-03
     5      (1,10,9)              1.05189933E-04
     6      (2,10,8)              0.99942173    
     7      (1,11,6)              1.17756033E-02
     8      (1,12,7)              1.12421730E-02
     9      (2,11,7)              1.0206593     
     10     (1,11,9)              2.62794174E-03
     11     (1,12,8)              1.09871951E-02
     12     (2,11,8)              0.99966404    
     13     (1,10,3)             -3.81195697E-04
     14     (1,11,2)             -9.55982886E-04
     15     (2,11,3)             -0.60542204    
     16     (1,10,4)             -1.34514012E-03
     17     (2,11,4)             -0.62959103    
     18     (1,10,5)             -3.27952035E-03
     19     (1,11,6)             -4.02358148E-03
     20     (2,11,5)             -0.65905943    
     21     (1,12,2)             -3.57093033E-03
     22     (2,12,3)             -0.57334735    
     23     (2,12,4)             -0.60754538    
     24     (1,12,6)             -5.43007345E-03
     25     (2,12,5)             -0.64334670    
     26     (1,13,2)             -7.42674023E-04
     27     (2,13,3)             -0.55563097    
     28     (2,13,4)             -0.59543451    
     29     (1,13,6)             -5.79154878E-03
     30     (2,13,5)             -0.63325734    
     31     (1,14,2)             -3.35523271E-03
     32     (1,15,3)              0.0000000     
     33     (2,14,3)             -0.55947361    
     34     (1,15,4)              0.0000000     
     35     (2,14,4)             -0.59085103    
     36     (1,14,6)             -2.54461332E-03
     37     (1,15,5)              0.0000000     
     38     (2,14,5)             -0.62395077    
 -----------------------------------------------




 SFR-1 PACKAGE - SUMMARY OF FLOWS FOR EACH CONTROL VOLUME   PERIOD      1   STEP        1
 --------------------------------------------------------------------------------------------------------------------------------------------------------------------------------------------------------
                                                                                                                                                                                               PERCENT   
   NUMBER   CELLID                  INFLOW      OUTFLOW        GWF        RAINFALL   EVAPORATION     RUNOFF     EXT INFLOW  EXT OUTFLOW    STORAGE      FROM MVR      TO MVR      IN - OUT    DIFFERENCE 
 --------------------------------------------------------------------------------------------------------------------------------------------------------------------------------------------------------
     1      (1,1,1)               0.0000      -24.771      -0.22868      0.0000       0.0000       0.0000       25.000       0.0000       0.0000       0.0000       0.0000       0.0000       0.0000     
     2      (1,2,2)               24.771      -24.416      -0.35500      0.0000       0.0000       0.0000       0.0000       0.0000       0.0000       0.0000       0.0000       0.0000       0.0000     
     3      (1,3,3)               24.416      -24.113      -0.30357      0.0000       0.0000       0.0000       0.0000       0.0000       0.0000       0.0000       0.0000       0.0000       0.0000     
     4      (1,3,4)               24.113      -23.833      -0.28022      0.0000       0.0000       0.0000       0.0000       0.0000       0.0000       0.0000       0.0000       0.0000       0.0000     
     5      (1,4,5)               13.833      -13.533      -0.29961      0.0000       0.0000       0.0000       0.0000       0.0000       0.0000       0.0000       0.0000       0.0000       0.0000     
     6      (1,5,6)               13.533      -13.303      -0.22988      0.0000       0.0000       0.0000       0.0000       0.0000       0.0000       0.0000       0.0000       0.0000       0.0000     
     7      (1,6,6)               13.303      -13.074      -0.22937      0.0000       0.0000       0.0000       0.0000       0.0000       0.0000       0.0000       0.0000       0.0000       0.0000     
     8      (1,7,6)               13.074      -12.845      -0.22885      0.0000       0.0000       0.0000       0.0000       0.0000       0.0000       0.0000       0.0000       0.0000       0.0000     
     9      (1,8,6)               12.845      -12.616      -0.22833      0.0000       0.0000       0.0000       0.0000       0.0000       0.0000       0.0000       0.0000       0.0000       0.0000     
     10     (1,3,5)               10.000      -9.9788      -2.12214E-02  0.0000       0.0000       0.0000       0.0000       0.0000       0.0000       0.0000       0.0000       0.0000       0.0000     
     11     (1,3,6)               9.9788      -9.9589      -1.99133E-02  0.0000       0.0000       0.0000       0.0000       0.0000       0.0000       0.0000       0.0000       0.0000       0.0000     
     12     (1,3,7)               9.9589      -9.9421      -1.67956E-02  0.0000       0.0000       0.0000       0.0000       0.0000       0.0000       0.0000       0.0000       0.0000       0.0000     
     13     (1,4,8)               9.9421      -9.9213      -2.07205E-02  0.0000       0.0000       0.0000       0.0000       0.0000       0.0000       0.0000       0.0000       0.0000       0.0000     
     14     (1,5,8)               9.9213      -9.9056      -1.57906E-02  0.0000       0.0000       0.0000       0.0000       0.0000       0.0000       0.0000       0.0000       0.0000       0.0000     
     15     (1,6,8)               9.9056      -9.8996      -5.93648E-03  0.0000       0.0000       0.0000       0.0000       0.0000       0.0000       0.0000       0.0000       0.0000       0.0000     
     16     (1,5,10)              0.0000      -9.9091      -9.09198E-02  0.0000       0.0000       0.0000       10.000       0.0000       0.0000       0.0000       0.0000       0.0000       0.0000     
     17     (1,5,9)               9.9091      -9.7275      -0.18158      0.0000       0.0000       0.0000       0.0000       0.0000       0.0000       0.0000       0.0000       0.0000       0.0000     
     18     (1,6,8)               9.7275      -9.6006      -0.12690      0.0000       0.0000       0.0000       0.0000       0.0000       0.0000       0.0000       0.0000       0.0000       0.0000     
     19     (1,6,8)               19.500      -19.329      -0.17138      0.0000       0.0000       0.0000       0.0000       0.0000       0.0000       0.0000       0.0000       0.0000       0.0000     
     20     (1,7,7)               19.329      -19.115      -0.21385      0.0000       0.0000       0.0000       0.0000       0.0000       0.0000       0.0000       0.0000       0.0000       0.0000     
     21     (1,8,7)               19.115      -18.966      -0.14944      0.0000       0.0000       0.0000       0.0000       0.0000       0.0000       0.0000       0.0000       0.0000       0.0000     
     22     (1,8,6)               18.966      -18.859      -0.10661      0.0000       0.0000       0.0000       0.0000       0.0000       0.0000       0.0000       0.0000       0.0000       0.0000     
     23     (1,9,6)               31.475       0.0000      -0.24837      0.0000       0.0000       0.0000       0.0000       0.0000       0.0000       0.0000      -31.227       0.0000       0.0000     
     24     (1,12,7)              0.0000      -32.604      -2.55042E-02  0.0000       0.0000       0.0000       0.0000       0.0000       0.0000       32.629       0.0000       0.0000       0.0000     
     25     (1,13,7)              32.604      -32.576      -2.80506E-02  0.0000       0.0000       0.0000       0.0000       0.0000       0.0000       0.0000       0.0000       0.0000       0.0000     
     26     (1,14,9)              0.0000      -147.31      -2.6922       0.0000       0.0000       0.0000       150.00       0.0000       0.0000       0.0000       0.0000       0.0000       0.0000     
     27     (1,13,8)              147.31      -144.63      -2.6825       0.0000       0.0000       0.0000       0.0000       0.0000       0.0000       0.0000       0.0000       0.0000       0.0000     
     28     (1,13,7)              144.63      -141.95      -2.6727       0.0000       0.0000       0.0000       0.0000       0.0000       0.0000       0.0000       0.0000       0.0000       0.0000     
     29     (1,13,6)              174.53       0.0000       1.3752       0.0000       0.0000       0.0000       0.0000      -1.06892E-07  0.0000       0.0000      -175.90       0.0000       0.0000     
     30     (1,13,2)              0.0000      -189.17       2.7828       0.0000       0.0000       0.0000       0.0000       0.0000       0.0000       186.39       0.0000       0.0000       0.0000     
     31     (1,13,1)              189.17       0.0000       1.3239       0.0000       0.0000       0.0000       0.0000      -195.94       0.0000       5.4417       0.0000       0.0000       0.0000     
 --------------------------------------------------------------------------------------------------------------------------------------------------------------------------------------------------------



 LAK-1 PACKAGE - SUMMARY OF FLOWS FOR EACH CONTROL VOLUME   PERIOD      1   STEP        1
 -----------------------------------------------------------------------------------------------------------------------------------------------------------------------------------
                                                                                                                                                                          PERCENT   
   NUMBER       GWF        RAINFALL   EVAPORATION     RUNOFF     EXT INFLOW   WITHDRAWAL  EXT OUTFLOW    STORAGE      CONSTANT     FROM MVR      TO MVR      IN - OUT    DIFFERENCE 
 -----------------------------------------------------------------------------------------------------------------------------------------------------------------------------------
     1      -4.0980       5.0000      -1.0000       1.5000       0.0000       0.0000       0.0000       0.0000       0.0000       31.227      -32.629       3.41413E-08  9.04954E-08
     2       7.3083       3.6000      -3.3000       3.0000       0.0000      -0.12000     -1.77051E-07  0.0000       0.0000       175.90      -186.39       1.87162E-07  9.86040E-08
 -----------------------------------------------------------------------------------------------------------------------------------------------------------------------------------



 WATER MOVER PACKAGE (MVR) FLOW RATES   PERIOD      1   STEP        1
 --------------------------------------------------------------------------------------------------------------------------
                                               PROVIDER  AVAILABLE   PROVIDED                                     RECEIVER 
   NUMBER           PROVIDER LOCATION             ID        RATE       RATE            RECEIVER LOCATION             ID    
 --------------------------------------------------------------------------------------------------------------------------
     1                  E13/SFR-1                 23      31.2       31.2                  E13/LAK-1                 1     
     2                  E13/LAK-1                 1       32.6       32.6                  E13/SFR-1                 24    
     3                  E13/SFR-1                 29      176.       176.                  E13/LAK-1                 2     
     4                  E13/LAK-1                 2       186.       186.                  E13/SFR-1                 30    
     5                  E13/UZF-1                 1       0.00       0.00                  E13/SFR-1                 1     
     6                  E13/UZF-1                 2       0.00       0.00                  E13/SFR-1                 2     
     7                  E13/UZF-1                 3       0.00       0.00                  E13/SFR-1                 2     
     8                  E13/UZF-1                 4       0.00       0.00                  E13/SFR-1                 2     
     9                  E13/UZF-1                 5       0.00       0.00                  E13/SFR-1                 3     
     10                 E13/UZF-1                 6       0.00       0.00                  E13/SFR-1                 11    
     11                 E13/UZF-1                 7       0.00       0.00                  E13/SFR-1                 12    
     12                 E13/UZF-1                 8       0.00       0.00                  E13/SFR-1                 12    
     13                 E13/UZF-1                 9       0.00       0.00                  E13/SFR-1                 2     
     14                 E13/UZF-1                 10      0.00       0.00                  E13/SFR-1                 3     
     15                 E13/UZF-1                 11      0.00       0.00                  E13/SFR-1                 4     
     16                 E13/UZF-1                 12      0.00       0.00                  E13/SFR-1                 10    
     17                 E13/UZF-1                 13      0.00       0.00                  E13/SFR-1                 11    
     18                 E13/UZF-1                 14      0.00       0.00                  E13/SFR-1                 12    
     19                 E13/UZF-1                 15      0.00       0.00                  E13/SFR-1                 13    
     20                 E13/UZF-1                 16      0.00       0.00                  E13/LAK-1                 2     
     21                 E13/UZF-1                 17      0.00       0.00                  E13/LAK-1                 2     
     22                 E13/UZF-1                 18      0.00       0.00                  E13/SFR-1                 3     
     23                 E13/UZF-1                 19      0.00       0.00                  E13/SFR-1                 4     
     24                 E13/UZF-1                 20      0.00       0.00                  E13/SFR-1                 5     
     25                 E13/UZF-1                 21      0.00       0.00                  E13/SFR-1                 6     
     26                 E13/UZF-1                 22      0.00       0.00                  E13/SFR-1                 6     
     27                 E13/UZF-1                 23      0.00       0.00                  E13/SFR-1                 13    
     28                 E13/UZF-1                 24      0.00       0.00                  E13/SFR-1                 17    
     29                 E13/UZF-1                 25      0.00       0.00                  E13/LAK-1                 2     
     30                 E13/UZF-1                 26      0.00       0.00                  E13/LAK-1                 2     
     31                 E13/UZF-1                 27      0.00       0.00                  E13/LAK-1                 2     
     32                 E13/UZF-1                 28      0.00       0.00                  E13/LAK-1                 2     
     33                 E13/UZF-1                 29      0.00       0.00                  E13/SFR-1                 5     
     34                 E13/UZF-1                 30      0.00       0.00                  E13/SFR-1                 6     
     35                 E13/UZF-1                 31      0.00       0.00                  E13/SFR-1                 6     
     36                 E13/UZF-1                 32      0.00       0.00                  E13/SFR-1                 14    
     37                 E13/UZF-1                 33      0.00       0.00                  E13/SFR-1                 17    
     38                 E13/UZF-1                 34      0.00       0.00                  E13/SFR-1                 16    
     39                 E13/UZF-1                 35      0.00       0.00                  E13/LAK-1                 2     
     40                 E13/UZF-1                 36      0.00       0.00                  E13/LAK-1                 2     
     41                 E13/UZF-1                 37      0.00       0.00                  E13/LAK-1                 2     
     42                 E13/UZF-1                 38      0.00       0.00                  E13/LAK-1                 2     
     43                 E13/UZF-1                 39      0.00       0.00                  E13/LAK-1                 2     
     44                 E13/UZF-1                 40      0.00       0.00                  E13/SFR-1                 7     
     45                 E13/UZF-1                 41      0.00       0.00                  E13/SFR-1                 7     
     46                 E13/UZF-1                 42      0.00       0.00                  E13/SFR-1                 19    
     47                 E13/UZF-1                 43      0.00       0.00                  E13/SFR-1                 17    
     48                 E13/UZF-1                 44      0.00       0.00                  E13/SFR-1                 16    
     49                 E13/UZF-1                 45      0.00       0.00                  E13/LAK-1                 2     
     50                 E13/UZF-1                 46      0.00       0.00                  E13/LAK-1                 2     
     51                 E13/UZF-1                 47      0.00       0.00                  E13/LAK-1                 2     
     52                 E13/UZF-1                 48      0.00       0.00                  E13/LAK-1                 2     
     53                 E13/UZF-1                 49      0.00       0.00                  E13/LAK-1                 2     
     54                 E13/UZF-1                 50      0.00       0.00                  E13/SFR-1                 8     
     55                 E13/UZF-1                 51      0.00       0.00                  E13/SFR-1                 20    
     56                 E13/UZF-1                 52      0.00       0.00                  E13/SFR-1                 20    
     57                 E13/UZF-1                 53      0.00       0.00                  E13/SFR-1                 20    
     58                 E13/UZF-1                 54      0.00       0.00                  E13/LAK-1                 2     
     59                 E13/UZF-1                 55      0.00       0.00                  E13/LAK-1                 2     
     60                 E13/UZF-1                 56      0.00       0.00                  E13/LAK-1                 2     
     61                 E13/UZF-1                 57      0.00       0.00                  E13/LAK-1                 2     
     62                 E13/UZF-1                 58      0.00       0.00                  E13/SFR-1                 9     
     63                 E13/UZF-1                 59      0.00       0.00                  E13/SFR-1                 21    
     64                 E13/UZF-1                 60      0.00       0.00                  E13/SFR-1                 21    
     65                 E13/UZF-1                 61      0.00       0.00                  E13/SFR-1                 21    
     66                 E13/UZF-1                 62      0.00       0.00                  E13/LAK-1                 2     
     67                 E13/UZF-1                 63      0.00       0.00                  E13/LAK-1                 2     
     68                 E13/UZF-1                 64      0.00       0.00                  E13/LAK-1                 2     
     69                 E13/UZF-1                 65      0.00       0.00                  E13/LAK-1                 2     
     70                 E13/UZF-1                 66      0.00       0.00                  E13/SFR-1                 23    
     71                 E13/UZF-1                 67      0.00       0.00                  E13/LAK-1                 1     
     72                 E13/UZF-1                 68      0.00       0.00                  E13/LAK-1                 1     
     73                 E13/UZF-1                 69      0.00       0.00                  E13/LAK-1                 1     
     74                 E13/UZF-1                 70      0.00       0.00                  E13/LAK-1                 2     
     75                 E13/UZF-1                 71      0.00       0.00                  E13/LAK-1                 2     
     76                 E13/UZF-1                 72      0.00       0.00                  E13/LAK-1                 2     
     77                 E13/UZF-1                 73      0.00       0.00                  E13/LAK-1                 2     
     78                 E13/UZF-1                 74      0.00       0.00                  E13/LAK-1                 1     
     79                 E13/UZF-1                 75      0.00       0.00                  E13/LAK-1                 1     
     80                 E13/UZF-1                 76      0.00       0.00                  E13/LAK-1                 1     
     81                 E13/UZF-1                 77      0.00       0.00                  E13/LAK-1                 2     
     82                 E13/UZF-1                 78      0.00       0.00                  E13/SFR-1                 9     
     83                 E13/UZF-1                 79      0.00       0.00                  E13/LAK-1                 1     
     84                 E13/UZF-1                 80      0.00       0.00                  E13/SFR-1                 31    
     85                 E13/UZF-1                 81      0.00       0.00                  E13/SFR-1                 30    
     86                 E13/UZF-1                 82      0.00       0.00                  E13/SFR-1                 9     
     87                 E13/UZF-1                 83      0.00       0.00                  E13/SFR-1                 24    
     88                 E13/UZF-1                 84      0.00       0.00                  E13/LAK-1                 1     
     89                 E13/UZF-1                 85      0.00       0.00                  E13/LAK-1                 1     
     90                 E13/UZF-1                 86      5.44       5.44                  E13/SFR-1                 31    
     91                 E13/UZF-1                 87      0.00       0.00                  E13/SFR-1                 30    
     92                 E13/UZF-1                 88      0.00       0.00                  E13/SFR-1                 29    
     93                 E13/UZF-1                 89      0.00       0.00                  E13/SFR-1                 28    
     94                 E13/UZF-1                 90      0.00       0.00                  E13/SFR-1                 27    
     95                 E13/UZF-1                 91      0.00       0.00                  E13/SFR-1                 26    
     96                 E13/UZF-1                 92      0.00       0.00                  E13/SFR-1                 30    
     97                 E13/UZF-1                 93      0.00       0.00                  E13/LAK-1                 2     
     98                 E13/UZF-1                 94      0.00       0.00                  E13/SFR-1                 28    
     99                 E13/UZF-1                 95      0.00       0.00                  E13/SFR-1                 27    
    100                 E13/UZF-1                 96      0.00       0.00                  E13/SFR-1                 26    
    101                 E13/UZF-1                 97      0.00       0.00                  E13/LAK-1                 2     
    102                 E13/UZF-1                 98      0.00       0.00                  E13/LAK-1                 2     
    103                 E13/UZF-1                 99      0.00       0.00                  E13/LAK-1                 2     
    104                 E13/UZF-1                100      0.00       0.00                  E13/LAK-1                 2     
    105                 E13/WEL-1                 1       0.00       0.00                  E13/UZF-1                 38    
    106                 E13/WEL-1                 2       0.00       0.00                  E13/UZF-1                 39    
    107                 E13/WEL-1                 3       0.00       0.00                  E13/UZF-1                 48    
    108                 E13/WEL-1                 4       0.00       0.00                  E13/UZF-1                 49    
    109                 E13/WEL-1                 5       0.00       0.00                  E13/UZF-1                 56    
    110                 E13/WEL-1                 6       0.00       0.00                  E13/UZF-1                 57    
    111                 E13/WEL-1                 7       0.00       0.00                  E13/UZF-1                 64    
    112                 E13/WEL-1                 8       0.00       0.00                  E13/UZF-1                 65    
    113                 E13/WEL-1                 9       0.00       0.00                  E13/UZF-1                 72    
    114                 E13/WEL-1                 10      0.00       0.00                  E13/UZF-1                 73    
 --------------------------------------------------------------------------------------------------------------------------



 SFR PACKAGE (SFR-1) STAGES FOR EACH CONTROL VOLUME   PERIOD      1   STEP        1
 ------------------------------------------------------------------------------------------------------------------------------------------------------
                                                                                                                               STREAMBED    STREAMBED  
 NAME                                       NUMBER   CELLID                  STAGE        DEPTH        WIDTH       GWF HEAD   CONDUCTANCE    GRADIENT  
 ------------------------------------------------------------------------------------------------------------------------------------------------------
 ALLREACHES                                   1      (1,1,1)               1094.3       1.2349       12.000       1019.5       5.40000E-02  1.4116     
 ALLREACHES                                   2      (1,2,2)               1089.3       1.2262       12.000       1019.8       8.40000E-02  1.4087     
 ALLREACHES                                   3      (1,3,3)               1083.6       1.2163       12.000       1019.4       7.20000E-02  1.4054     
 ALLREACHES                                   4      (1,3,4)               1078.6       1.2075       12.000       1019.3       6.66000E-02  1.4025     
 ALLREACHES                                   5      (1,4,5)               1072.8       0.84113      12.000       1019.3       7.80000E-02  1.2804     
 ALLREACHES                                   6      (1,5,6)               1067.3       0.83133      12.000       1019.0       6.00000E-02  1.2771     
 ALLREACHES                                   7      (1,6,6)               1062.6       0.82276      12.000       1018.9       6.00000E-02  1.2743     
 ALLREACHES                                   8      (1,7,6)               1057.9       0.81415      12.000       1018.8       6.00000E-02  1.2714     
 ALLREACHES                                   9      (1,8,6)               1053.2       0.80551      12.000       1018.7       6.00000E-02  1.2685     
 ALLREACHES                                   10     (1,3,5)               1074.6       0.93630      9.6364       1018.7       7.22727E-03  1.4681     
 ALLREACHES                                   11     (1,3,6)               1071.9       0.98022      8.9091       1018.7       6.68182E-03  1.4901     
 ALLREACHES                                   12     (1,3,7)               1069.3       1.0277       8.2182       1018.6       5.54727E-03  1.5139     
 ALLREACHES                                   13     (1,4,8)               1066.5       1.0884       7.4545       1018.5       6.70909E-03  1.5442     
 ALLREACHES                                   14     (1,5,8)               1063.6       1.1639       6.6545       1018.5       4.99091E-03  1.5819     
 ALLREACHES                                   15     (1,6,8)               1061.8       1.2200       6.1455       1019.1       1.84364E-03  1.6100     
 ALLREACHES                                   16     (1,5,10)              1078.4       0.63679      10.000       1018.8       2.50000E-02  1.2123     
 ALLREACHES                                   17     (1,5,9)               1071.5       0.63155      10.000       1019.0       5.00000E-02  1.2105     
 ALLREACHES                                   18     (1,6,8)               1063.8       0.62558      10.000       1019.1       3.50000E-02  1.2085     
 ALLREACHES                                   19     (1,6,8)               1060.0       1.2846       10.000       1019.1       4.00000E-02  1.4282     
 ALLREACHES                                   20     (1,7,7)               1056.9       1.2770       10.000       1018.8       5.00000E-02  1.4257     
 ALLREACHES                                   21     (1,8,7)               1054.1       1.2697       10.000       1018.6       3.50000E-02  1.4232     
 ALLREACHES                                   22     (1,8,6)               1052.1       1.2646       10.000       1018.7       2.50000E-02  1.4215     
 ALLREACHES                                   23     (1,9,6)               1046.6       1.1396       12.000       1018.2       6.00000E-02  1.3799     
 ALLREACHES                                   24     (1,12,7)              1037.7       1.2507       12.000       1018.7       6.00000E-03  1.4169     
 ALLREACHES                                   25     (1,13,7)              1030.2       1.2501       12.000       1021.5       6.60000E-03  1.4167     
 ALLREACHES                                   26     (1,14,9)              1034.8       1.4870       60.000       1026.3       0.60000      1.4957     
 ALLREACHES                                   27     (1,13,8)              1031.5       1.4708       60.000       1023.4       0.60000      1.4903     
 ALLREACHES                                   28     (1,13,7)              1028.1       1.4546       60.000       1021.5       0.60000      1.4849     
 ALLREACHES                                   29     (1,13,6)              1013.9       0.90773      60.000       1016.2       0.60000     -0.76400    
 ALLREACHES                                   30     (1,13,2)              998.29       1.4168       60.000       1002.9       0.60000     -1.5460     
 ALLREACHES                                   31     (1,13,1)              993.33       1.4505       60.000       997.00       0.36000     -1.2258     
 ------------------------------------------------------------------------------------------------------------------------------------------------------



 LAK PACKAGE (LAK-1) STAGES FOR EACH CONTROL VOLUME   PERIOD      1   STEP        1
 --------------------------------------------------------------
   NUMBER      STAGE     SURFACE AREA WETTED AREA     VOLUME   
 --------------------------------------------------------------
     1       1041.3       1.00000E+08  1.01383E+08  4.27514E+09
     2       1001.4       3.00000E+08  3.01395E+08  5.29815E+09
 --------------------------------------------------------------



 HEAD WILL BE SAVED ON UNIT 1026 AT END OF TIME STEP    1, STRESS PERIOD    1


  SFR-1 BUDGET FOR ENTIRE MODEL AT END OF TIME STEP    1, STRESS PERIOD   1
  ------------------------------------------------------------------------------

     CUMULATIVE SFR-1      L**3       RATES FOR THIS TIME STEP      L**3/T
     ------------------                 ------------------------

           IN:                                      IN:
           ---                                      ---
                 GWF =    14406392.0227                   GWF =           5.4819
            RAINFALL =           0.0000              RAINFALL =           0.0000
         EVAPORATION =           0.0000           EVAPORATION =           0.0000
              RUNOFF =           0.0000                RUNOFF =           0.0000
          EXT-INFLOW =   486180000.0000            EXT-INFLOW =         185.0000
         EXT-OUTFLOW =           0.0000           EXT-OUTFLOW =           0.0000
             STORAGE =           0.0000               STORAGE =           0.0000
            FROM-MVR =   589887185.3700              FROM-MVR =         224.4624
              TO-MVR =           0.0000                TO-MVR =           0.0000

            TOTAL IN =  1090473577.3927              TOTAL IN =         414.9443

          OUT:                                     OUT:
          ----                                     ----
                 GWF =    31204682.3949                   GWF =          11.8739
            RAINFALL =           0.0000              RAINFALL =           0.0000
         EVAPORATION =           0.0000           EVAPORATION =           0.0000
              RUNOFF =           0.0000                RUNOFF =           0.0000
          EXT-INFLOW =           0.0000            EXT-INFLOW =           0.0000
         EXT-OUTFLOW =   514930307.2297           EXT-OUTFLOW =         195.9400
             STORAGE =           0.0000               STORAGE =           0.0000
            FROM-MVR =           0.0000              FROM-MVR =           0.0000
              TO-MVR =   544338587.7681                TO-MVR =         207.1304

           TOTAL OUT =  1090473577.3927             TOTAL OUT =         414.9443

            IN - OUT =           0.0000              IN - OUT =       5.6843E-14

 PERCENT DISCREPANCY =           0.00     PERCENT DISCREPANCY =           0.00



  LAK-1 BUDGET FOR ENTIRE MODEL AT END OF TIME STEP    1, STRESS PERIOD   1
  ------------------------------------------------------------------------------

     CUMULATIVE LAK-1      L**3       RATES FOR THIS TIME STEP      L**3/T
     ------------------                 ------------------------

           IN:                                      IN:
           ---                                      ---
                 GWF =    19206292.9625                   GWF =           7.3083
            RAINFALL =    22600800.0000              RAINFALL =           8.6000
         EVAPORATION =           0.0000           EVAPORATION =           0.0000
              RUNOFF =    11826000.0000                RUNOFF =           4.5000
          EXT-INFLOW =           0.0000            EXT-INFLOW =           0.0000
          WITHDRAWAL =           0.0000            WITHDRAWAL =           0.0000
         EXT-OUTFLOW =           0.0000           EXT-OUTFLOW =           0.0000
             STORAGE =           0.0000               STORAGE =           0.0000
            CONSTANT =           0.0000              CONSTANT =           0.0000
            FROM-MVR =   544338587.7681              FROM-MVR =         207.1304
              TO-MVR =           0.0000                TO-MVR =           0.0000

            TOTAL IN =   597971680.7306              TOTAL IN =         227.5387

          OUT:                                     OUT:
          ----                                     ----
                 GWF =    10769454.0884                   GWF =           4.0980
            RAINFALL =           0.0000              RAINFALL =           0.0000
         EVAPORATION =    11300400.0000           EVAPORATION =           4.3000
              RUNOFF =           0.0000                RUNOFF =           0.0000
          EXT-INFLOW =           0.0000            EXT-INFLOW =           0.0000
          WITHDRAWAL =      315360.0000            WITHDRAWAL =           0.1200
         EXT-OUTFLOW =           0.4653           EXT-OUTFLOW =       1.7705E-07
             STORAGE =           0.0000               STORAGE =           0.0000
            CONSTANT =           0.0000              CONSTANT =           0.0000
            FROM-MVR =           0.0000              FROM-MVR =           0.0000
              TO-MVR =   575586465.5953                TO-MVR =         219.0207

           TOTAL OUT =   597971680.1490             TOTAL OUT =         227.5387

            IN - OUT =           0.5816              IN - OUT =       2.2130E-07

 PERCENT DISCREPANCY =           0.00     PERCENT DISCREPANCY =           0.00



  UZF-1 BUDGET FOR ENTIRE MODEL AT END OF TIME STEP    1, STRESS PERIOD   1
  ------------------------------------------------------------------------------

     CUMULATIVE UZF-1      L**3       RATES FOR THIS TIME STEP      L**3/T
     ------------------                 ------------------------

           IN:                                      IN:
           ---                                      ---
                 GWF =           0.0000                   GWF =           0.0000
        INFILTRATION =     6721635.6000          INFILTRATION =           2.5577
             REJ-INF =           0.0000               REJ-INF =           0.0000
                UZET =           0.0000                  UZET =           0.0000
             STORAGE =           0.0000               STORAGE =           0.0000
            FROM-MVR =           0.0000              FROM-MVR =           0.0000
      REJ-INF-TO-MVR =           0.0000        REJ-INF-TO-MVR =           0.0000

            TOTAL IN =     6721635.6000              TOTAL IN =           2.5577

          OUT:                                     OUT:
          ----                                     ----
                 GWF =     6699691.8000                   GWF =           2.5494
        INFILTRATION =           0.0000          INFILTRATION =           0.0000
             REJ-INF =           0.0000               REJ-INF =           0.0000
                UZET =           0.0000                  UZET =           0.0000
             STORAGE =           0.0000               STORAGE =           0.0000
            FROM-MVR =           0.0000              FROM-MVR =           0.0000
      REJ-INF-TO-MVR =       21943.8002        REJ-INF-TO-MVR =       8.3500E-03

           TOTAL OUT =     6721635.6002             TOTAL OUT =           2.5577

            IN - OUT =      -1.9574E-04              IN - OUT =      -7.4483E-11

 PERCENT DISCREPANCY =          -0.00     PERCENT DISCREPANCY =          -0.00



  WATER MOVER BUDGET FOR ENTIRE MODEL AT END OF TIME STEP    1, STRESS PERIOD   1
  ------------------------------------------------------------------------------

     CUMULATIVE WATER MOVER      L**3       RATES FOR THIS TIME STEP      L**3/T
     ------------------                 ------------------------

           IN:                                      IN:
           ---                                      ---
               UZF-1 =    14300719.7746                 UZF-1 =           5.4417
               SFR-1 =   544338587.7681                 SFR-1 =         207.1304
               LAK-1 =   575586465.5953                 LAK-1 =         219.0207
               WEL-1 =           0.0000                 WEL-1 =           0.0000

            TOTAL IN =  1134225773.1381              TOTAL IN =         431.5928

          OUT:                                     OUT:
          ----                                     ----
               UZF-1 =           0.0000                 UZF-1 =           0.0000
               SFR-1 =   589887185.3700                 SFR-1 =         224.4624
               LAK-1 =   544338587.7681                 LAK-1 =         207.1304
               WEL-1 =           0.0000                 WEL-1 =           0.0000

           TOTAL OUT =  1134225773.1381             TOTAL OUT =         431.5928

            IN - OUT =           0.0000              IN - OUT =           0.0000

 PERCENT DISCREPANCY =           0.00     PERCENT DISCREPANCY =           0.00



  VOLUME BUDGET FOR ENTIRE MODEL AT END OF TIME STEP    1, STRESS PERIOD   1
  ---------------------------------------------------------------------------------------------------

     CUMULATIVE VOLUME      L**3       RATES FOR THIS TIME STEP      L**3/T          PACKAGE NAME    
     ------------------                 ------------------------                     ----------------

           IN:                                      IN:
           ---                                      ---
              STO-SS =           0.0000                STO-SS =           0.0000     STORAGE                          
              STO-SY =           0.0000                STO-SY =           0.0000     STORAGE                          
                 WEL =           0.0000                   WEL =           0.0000     WEL-1                            
          WEL-TO-MVR =           0.0000            WEL-TO-MVR =           0.0000     WEL-1                            
                 GHB =     1867992.9946                   GHB =           0.7108     GHB_0                            
                 SFR =    31204682.3949                   SFR =          11.8739     SFR-1                            
                 LAK =    10769454.0884                   LAK =           4.0980     LAK-1                            
           UZF-GWRCH =     6699691.8000             UZF-GWRCH =           2.5494     UZF-1                            
             UZF-GWD =           0.0000               UZF-GWD =           0.0000     UZF-1                            
      UZF-GWD TO-MVR =           0.0000        UZF-GWD TO-MVR =           0.0000     UZF-1                            
            UZF-GWET =           0.0000              UZF-GWET =           0.0000     UZF-1                            

            TOTAL IN =    50541821.2779              TOTAL IN =          19.2320

          OUT:                                     OUT:
          ----                                     ----
              STO-SS =           0.0000                STO-SS =           0.0000     STORAGE                          
              STO-SY =           0.0000                STO-SY =           0.0000     STORAGE                          
                 WEL =           0.0000                   WEL =           0.0000     WEL-1                            
          WEL-TO-MVR =           0.0000            WEL-TO-MVR =           0.0000     WEL-1                            
                 GHB =      899061.6726                   GHB =           0.3421     GHB_0                            
                 SFR =    14406392.3390                   SFR =           5.4819     SFR-1                            
                 LAK =    19206292.9625                   LAK =           7.3083     LAK-1                            
           UZF-GWRCH =           0.0000             UZF-GWRCH =           0.0000     UZF-1                            
             UZF-GWD =           0.0000               UZF-GWD =           0.0000     UZF-1                            
      UZF-GWD TO-MVR =    14278775.9744        UZF-GWD TO-MVR =           5.4333     UZF-1                            
            UZF-GWET =     1751297.0345              UZF-GWET =           0.6664     UZF-1                            

           TOTAL OUT =    50541819.9830             TOTAL OUT =          19.2320

            IN - OUT =           1.2949              IN - OUT =       4.9272E-07

 PERCENT DISCREPANCY =           0.00     PERCENT DISCREPANCY =           0.00




         TIME SUMMARY AT END OF TIME STEP    1 IN STRESS PERIOD    1
                    SECONDS     MINUTES      HOURS       DAYS        YEARS
                    -----------------------------------------------------------
   TIME STEP LENGTH 2.62800E+06  43800.      730.00      30.417     8.32763E-02
 STRESS PERIOD TIME 2.62800E+06  43800.      730.00      30.417     8.32763E-02
         TOTAL TIME 2.62800E+06  43800.      730.00      30.417     8.32763E-02


end timestep


start timestep kper="2" kstp="1" mode="normal"


 END OF FILE DETECTED IN OUTPUT CONTROL.
 CURRENT OUTPUT CONTROL SETTINGS WILL BE 
 REPEATED UNTIL THE END OF THE SIMULATION.

 OUTPUT CONTROL FOR STRESS PERIOD 2 IS REPEATED USING SETTINGS FROM A PREVIOUS STRESS PERIOD.


 PROCESSING STORAGE PERIOD DATA
 END PROCESSING STORAGE PERIOD DATA


 STRESS PERIOD 2 IS TRANSIENT


 REUSING MVRS FROM LAST STRESS PERIOD

 REUSING SFRS FROM LAST STRESS PERIOD

 REUSING LAKS FROM LAST STRESS PERIOD

end timestep


start timestep kper="2" kstp="2" mode="normal"


end timestep


start timestep kper="2" kstp="3" mode="normal"


end timestep


start timestep kper="2" kstp="4" mode="normal"


end timestep


start timestep kper="2" kstp="5" mode="normal"


end timestep


start timestep kper="2" kstp="6" mode="normal"


end timestep


start timestep kper="2" kstp="7" mode="normal"


end timestep


start timestep kper="2" kstp="8" mode="normal"


end timestep


start timestep kper="2" kstp="9" mode="normal"


end timestep


start timestep kper="2" kstp="10" mode="normal"


end timestep


start timestep kper="2" kstp="11" mode="normal"


end timestep


start timestep kper="2" kstp="12" mode="normal"


end timestep


start timestep kper="2" kstp="13" mode="normal"


end timestep


start timestep kper="2" kstp="14" mode="normal"


end timestep


start timestep kper="2" kstp="15" mode="normal"

 UBDSV1 SAVING           STO-SS ON UNIT   1025 AT TIME STEP     15, STRESS PERIOD      2
 UBDSV1 SAVING           STO-SY ON UNIT   1025 AT TIME STEP     15, STRESS PERIOD      2
 UBDSV1 SAVING     FLOW-JA-FACE ON UNIT   1025 AT TIME STEP     15, STRESS PERIOD      2
 UBDSV06 SAVING       DATA-SPDIS IN MODEL E13              PACKAGE NPF             CONNECTED TO MODEL E13              PACKAGE NPF              ON UNIT   1025 AT TIME STEP     15, STRESS PERIOD      2
 UBDSV06 SAVING              WEL IN MODEL E13              PACKAGE E13             CONNECTED TO MODEL E13              PACKAGE WEL-1            ON UNIT   1025 AT TIME STEP     15, STRESS PERIOD      2
 UBDSV06 SAVING       WEL-TO-MVR IN MODEL E13              PACKAGE E13             CONNECTED TO MODEL E13              PACKAGE WEL-1            ON UNIT   1025 AT TIME STEP     15, STRESS PERIOD      2
 UBDSV06 SAVING              GHB IN MODEL E13              PACKAGE E13             CONNECTED TO MODEL E13              PACKAGE GHB_0            ON UNIT   1025 AT TIME STEP     15, STRESS PERIOD      2
 UBDSV06 SAVING              SFR IN MODEL E13              PACKAGE E13             CONNECTED TO MODEL E13              PACKAGE SFR-1            ON UNIT   1025 AT TIME STEP     15, STRESS PERIOD      2
 UBDSV06 SAVING              LAK IN MODEL E13              PACKAGE E13             CONNECTED TO MODEL E13              PACKAGE LAK-1            ON UNIT   1025 AT TIME STEP     15, STRESS PERIOD      2
 UBDSV06 SAVING        UZF-GWRCH IN MODEL E13              PACKAGE E13             CONNECTED TO MODEL E13              PACKAGE UZF-1            ON UNIT   1025 AT TIME STEP     15, STRESS PERIOD      2
 UBDSV06 SAVING          UZF-GWD IN MODEL E13              PACKAGE E13             CONNECTED TO MODEL E13              PACKAGE UZF-1            ON UNIT   1025 AT TIME STEP     15, STRESS PERIOD      2
 UBDSV06 SAVING   UZF-GWD TO-MVR IN MODEL E13              PACKAGE E13             CONNECTED TO MODEL E13              PACKAGE UZF-1            ON UNIT   1025 AT TIME STEP     15, STRESS PERIOD      2
 UBDSV06 SAVING         UZF-GWET IN MODEL E13              PACKAGE E13             CONNECTED TO MODEL E13              PACKAGE UZF-1            ON UNIT   1025 AT TIME STEP     15, STRESS PERIOD      2
 UBDSV06 SAVING     FLOW-JA-FACE IN MODEL E13              PACKAGE SFR-1           CONNECTED TO MODEL E13              PACKAGE SFR-1            ON UNIT   1017 AT TIME STEP     15, STRESS PERIOD      2
 UBDSV06 SAVING              GWF IN MODEL E13              PACKAGE SFR-1           CONNECTED TO MODEL E13              PACKAGE E13              ON UNIT   1017 AT TIME STEP     15, STRESS PERIOD      2
 UBDSV06 SAVING         RAINFALL IN MODEL E13              PACKAGE SFR-1           CONNECTED TO MODEL E13              PACKAGE SFR-1            ON UNIT   1017 AT TIME STEP     15, STRESS PERIOD      2
 UBDSV06 SAVING      EVAPORATION IN MODEL E13              PACKAGE SFR-1           CONNECTED TO MODEL E13              PACKAGE SFR-1            ON UNIT   1017 AT TIME STEP     15, STRESS PERIOD      2
 UBDSV06 SAVING           RUNOFF IN MODEL E13              PACKAGE SFR-1           CONNECTED TO MODEL E13              PACKAGE SFR-1            ON UNIT   1017 AT TIME STEP     15, STRESS PERIOD      2
 UBDSV06 SAVING       EXT-INFLOW IN MODEL E13              PACKAGE SFR-1           CONNECTED TO MODEL E13              PACKAGE SFR-1            ON UNIT   1017 AT TIME STEP     15, STRESS PERIOD      2
 UBDSV06 SAVING      EXT-OUTFLOW IN MODEL E13              PACKAGE SFR-1           CONNECTED TO MODEL E13              PACKAGE SFR-1            ON UNIT   1017 AT TIME STEP     15, STRESS PERIOD      2
 UBDSV06 SAVING          STORAGE IN MODEL E13              PACKAGE SFR-1           CONNECTED TO MODEL E13              PACKAGE SFR-1            ON UNIT   1017 AT TIME STEP     15, STRESS PERIOD      2
 UBDSV06 SAVING         FROM-MVR IN MODEL E13              PACKAGE SFR-1           CONNECTED TO MODEL E13              PACKAGE SFR-1            ON UNIT   1017 AT TIME STEP     15, STRESS PERIOD      2
 UBDSV06 SAVING           TO-MVR IN MODEL E13              PACKAGE SFR-1           CONNECTED TO MODEL E13              PACKAGE SFR-1            ON UNIT   1017 AT TIME STEP     15, STRESS PERIOD      2
 UBDSV06 SAVING              GWF IN MODEL E13              PACKAGE LAK-1           CONNECTED TO MODEL E13              PACKAGE E13              ON UNIT   1019 AT TIME STEP     15, STRESS PERIOD      2
 UBDSV06 SAVING         RAINFALL IN MODEL E13              PACKAGE LAK-1           CONNECTED TO MODEL E13              PACKAGE LAK-1            ON UNIT   1019 AT TIME STEP     15, STRESS PERIOD      2
 UBDSV06 SAVING      EVAPORATION IN MODEL E13              PACKAGE LAK-1           CONNECTED TO MODEL E13              PACKAGE LAK-1            ON UNIT   1019 AT TIME STEP     15, STRESS PERIOD      2
 UBDSV06 SAVING           RUNOFF IN MODEL E13              PACKAGE LAK-1           CONNECTED TO MODEL E13              PACKAGE LAK-1            ON UNIT   1019 AT TIME STEP     15, STRESS PERIOD      2
 UBDSV06 SAVING       EXT-INFLOW IN MODEL E13              PACKAGE LAK-1           CONNECTED TO MODEL E13              PACKAGE LAK-1            ON UNIT   1019 AT TIME STEP     15, STRESS PERIOD      2
 UBDSV06 SAVING       WITHDRAWAL IN MODEL E13              PACKAGE LAK-1           CONNECTED TO MODEL E13              PACKAGE LAK-1            ON UNIT   1019 AT TIME STEP     15, STRESS PERIOD      2
 UBDSV06 SAVING      EXT-OUTFLOW IN MODEL E13              PACKAGE LAK-1           CONNECTED TO MODEL E13              PACKAGE LAK-1            ON UNIT   1019 AT TIME STEP     15, STRESS PERIOD      2
 UBDSV06 SAVING          STORAGE IN MODEL E13              PACKAGE LAK-1           CONNECTED TO MODEL E13              PACKAGE LAK-1            ON UNIT   1019 AT TIME STEP     15, STRESS PERIOD      2
 UBDSV06 SAVING         CONSTANT IN MODEL E13              PACKAGE LAK-1           CONNECTED TO MODEL E13              PACKAGE LAK-1            ON UNIT   1019 AT TIME STEP     15, STRESS PERIOD      2
 UBDSV06 SAVING         FROM-MVR IN MODEL E13              PACKAGE LAK-1           CONNECTED TO MODEL E13              PACKAGE LAK-1            ON UNIT   1019 AT TIME STEP     15, STRESS PERIOD      2
 UBDSV06 SAVING           TO-MVR IN MODEL E13              PACKAGE LAK-1           CONNECTED TO MODEL E13              PACKAGE LAK-1            ON UNIT   1019 AT TIME STEP     15, STRESS PERIOD      2
 UBDSV06 SAVING     FLOW-JA-FACE IN MODEL E13              PACKAGE UZF-1           CONNECTED TO MODEL E13              PACKAGE UZF-1            ON UNIT   1021 AT TIME STEP     15, STRESS PERIOD      2
 UBDSV06 SAVING              GWF IN MODEL E13              PACKAGE UZF-1           CONNECTED TO MODEL E13              PACKAGE E13              ON UNIT   1021 AT TIME STEP     15, STRESS PERIOD      2
 UBDSV06 SAVING     INFILTRATION IN MODEL E13              PACKAGE UZF-1           CONNECTED TO MODEL E13              PACKAGE UZF-1            ON UNIT   1021 AT TIME STEP     15, STRESS PERIOD      2
 UBDSV06 SAVING          REJ-INF IN MODEL E13              PACKAGE UZF-1           CONNECTED TO MODEL E13              PACKAGE UZF-1            ON UNIT   1021 AT TIME STEP     15, STRESS PERIOD      2
 UBDSV06 SAVING             UZET IN MODEL E13              PACKAGE UZF-1           CONNECTED TO MODEL E13              PACKAGE UZF-1            ON UNIT   1021 AT TIME STEP     15, STRESS PERIOD      2
 UBDSV06 SAVING          STORAGE IN MODEL E13              PACKAGE UZF-1           CONNECTED TO MODEL E13              PACKAGE UZF-1            ON UNIT   1021 AT TIME STEP     15, STRESS PERIOD      2
 UBDSV06 SAVING         FROM-MVR IN MODEL E13              PACKAGE UZF-1           CONNECTED TO MODEL E13              PACKAGE UZF-1            ON UNIT   1021 AT TIME STEP     15, STRESS PERIOD      2
 UBDSV06 SAVING   REJ-INF-TO-MVR IN MODEL E13              PACKAGE UZF-1           CONNECTED TO MODEL E13              PACKAGE UZF-1            ON UNIT   1021 AT TIME STEP     15, STRESS PERIOD      2
 UBDSV06 SAVING       MOVER-FLOW IN MODEL E13              PACKAGE UZF-1           CONNECTED TO MODEL E13              PACKAGE UZF-1            ON UNIT   1023 AT TIME STEP     15, STRESS PERIOD      2
 UBDSV06 SAVING       MOVER-FLOW IN MODEL E13              PACKAGE UZF-1           CONNECTED TO MODEL E13              PACKAGE SFR-1            ON UNIT   1023 AT TIME STEP     15, STRESS PERIOD      2
 UBDSV06 SAVING       MOVER-FLOW IN MODEL E13              PACKAGE UZF-1           CONNECTED TO MODEL E13              PACKAGE LAK-1            ON UNIT   1023 AT TIME STEP     15, STRESS PERIOD      2
 UBDSV06 SAVING       MOVER-FLOW IN MODEL E13              PACKAGE UZF-1           CONNECTED TO MODEL E13              PACKAGE WEL-1            ON UNIT   1023 AT TIME STEP     15, STRESS PERIOD      2
 UBDSV06 SAVING       MOVER-FLOW IN MODEL E13              PACKAGE SFR-1           CONNECTED TO MODEL E13              PACKAGE UZF-1            ON UNIT   1023 AT TIME STEP     15, STRESS PERIOD      2
 UBDSV06 SAVING       MOVER-FLOW IN MODEL E13              PACKAGE SFR-1           CONNECTED TO MODEL E13              PACKAGE SFR-1            ON UNIT   1023 AT TIME STEP     15, STRESS PERIOD      2
 UBDSV06 SAVING       MOVER-FLOW IN MODEL E13              PACKAGE SFR-1           CONNECTED TO MODEL E13              PACKAGE LAK-1            ON UNIT   1023 AT TIME STEP     15, STRESS PERIOD      2
 UBDSV06 SAVING       MOVER-FLOW IN MODEL E13              PACKAGE SFR-1           CONNECTED TO MODEL E13              PACKAGE WEL-1            ON UNIT   1023 AT TIME STEP     15, STRESS PERIOD      2
 UBDSV06 SAVING       MOVER-FLOW IN MODEL E13              PACKAGE LAK-1           CONNECTED TO MODEL E13              PACKAGE UZF-1            ON UNIT   1023 AT TIME STEP     15, STRESS PERIOD      2
 UBDSV06 SAVING       MOVER-FLOW IN MODEL E13              PACKAGE LAK-1           CONNECTED TO MODEL E13              PACKAGE SFR-1            ON UNIT   1023 AT TIME STEP     15, STRESS PERIOD      2
 UBDSV06 SAVING       MOVER-FLOW IN MODEL E13              PACKAGE LAK-1           CONNECTED TO MODEL E13              PACKAGE LAK-1            ON UNIT   1023 AT TIME STEP     15, STRESS PERIOD      2
 UBDSV06 SAVING       MOVER-FLOW IN MODEL E13              PACKAGE LAK-1           CONNECTED TO MODEL E13              PACKAGE WEL-1            ON UNIT   1023 AT TIME STEP     15, STRESS PERIOD      2
 UBDSV06 SAVING       MOVER-FLOW IN MODEL E13              PACKAGE WEL-1           CONNECTED TO MODEL E13              PACKAGE UZF-1            ON UNIT   1023 AT TIME STEP     15, STRESS PERIOD      2
 UBDSV06 SAVING       MOVER-FLOW IN MODEL E13              PACKAGE WEL-1           CONNECTED TO MODEL E13              PACKAGE SFR-1            ON UNIT   1023 AT TIME STEP     15, STRESS PERIOD      2
 UBDSV06 SAVING       MOVER-FLOW IN MODEL E13              PACKAGE WEL-1           CONNECTED TO MODEL E13              PACKAGE LAK-1            ON UNIT   1023 AT TIME STEP     15, STRESS PERIOD      2
 UBDSV06 SAVING       MOVER-FLOW IN MODEL E13              PACKAGE WEL-1           CONNECTED TO MODEL E13              PACKAGE WEL-1            ON UNIT   1023 AT TIME STEP     15, STRESS PERIOD      2

 WEL PACKAGE (WEL-1) FLOW RATES   PERIOD      2   STEP       15
 -----------------------------------------------
   NUMBER   CELLID                    RATE      
 -----------------------------------------------
     1      (1,6,4)               0.0000000     
     2      (1,6,5)               0.0000000     
     3      (1,7,4)               0.0000000     
     4      (1,7,5)               0.0000000     
     5      (1,8,4)               0.0000000     
     6      (1,8,5)               0.0000000     
     7      (1,9,4)               0.0000000     
     8      (1,9,5)               0.0000000     
     9      (1,10,4)              0.0000000     
     10     (1,10,5)              0.0000000     
 -----------------------------------------------




 WEL PACKAGE (WEL-1) FLOW RATES TO-MVR   PERIOD      2   STEP       15
 -----------------------------------------------
   NUMBER   CELLID                    RATE      
 -----------------------------------------------
     1      (1,6,4)               0.0000000     
     2      (1,6,5)               0.0000000     
     3      (1,7,4)               0.0000000     
     4      (1,7,5)               0.0000000     
     5      (1,8,4)               0.0000000     
     6      (1,8,5)               0.0000000     
     7      (1,9,4)               0.0000000     
     8      (1,9,5)               0.0000000     
     9      (1,10,4)              0.0000000     
     10     (1,10,5)              0.0000000     
 -----------------------------------------------




 SFR PACKAGE (SFR-1) FLOW RATES   PERIOD      2   STEP       15
 ----------------------------------------------------------------------------------------
   NUMBER   CELLID                    RATE       NAME                                    
 ----------------------------------------------------------------------------------------
     1      (1,1,1)               0.22868377     ALLREACHES                              
     2      (1,2,2)               0.35499870     ALLREACHES                              
     3      (1,3,3)               0.30357347     ALLREACHES                              
     4      (1,3,4)               0.28021936     ALLREACHES                              
     5      (1,4,5)               0.29960805     ALLREACHES                              
     6      (1,5,6)               0.22987955     ALLREACHES                              
     7      (1,6,6)               0.22936563     ALLREACHES                              
     8      (1,7,6)               0.22884928     ALLREACHES                              
     9      (1,8,6)               0.22833044     ALLREACHES                              
     10     (1,3,5)               2.12214188E-02 ALLREACHES                              
     11     (1,3,6)               1.99133007E-02 ALLREACHES                              
     12     (1,3,7)               1.67956407E-02 ALLREACHES                              
     13     (1,4,8)               2.07205450E-02 ALLREACHES                              
     14     (1,5,8)               1.57905563E-02 ALLREACHES                              
     15     (1,6,8)               5.93648362E-03 ALLREACHES                              
     16     (1,5,10)              9.09197693E-02 ALLREACHES                              
     17     (1,5,9)               0.18157734     ALLREACHES                              
     18     (1,6,8)               0.12689514     ALLREACHES                              
     19     (1,6,8)               0.17138468     ALLREACHES                              
     20     (1,7,7)               0.21384773     ALLREACHES                              
     21     (1,8,7)               0.14943953     ALLREACHES                              
     22     (1,8,6)               0.10661428     ALLREACHES                              
     23     (1,9,6)               0.24837387     ALLREACHES                              
     24     (1,12,7)              2.55041084E-02 ALLREACHES                              
     25     (1,13,7)              2.80504524E-02 ALLREACHES                              
     26     (1,14,9)              2.6922030      ALLREACHES                              
     27     (1,13,8)              2.6824902      ALLREACHES                              
     28     (1,13,7)              2.6727412      ALLREACHES                              
     29     (1,13,6)             -1.3826483      ALLREACHES                              
     30     (1,13,2)             -2.9147724      ALLREACHES                              
     31     (1,13,1)             -1.3220496      ALLREACHES                              
 ----------------------------------------------------------------------------------------




 LAK PACKAGE (LAK-1) FLOW RATES   PERIOD      2   STEP       15
 -----------------------------------------------
   NUMBER   CELLID                    RATE      
 -----------------------------------------------
     1      (1,9,7)               8.36664166E-03
     2      (1,10,6)              1.07399543E-02
     3      (2,10,7)              1.0169324     
     4      (1,9,8)               5.98659679E-03
     5      (1,10,9)              1.05188459E-04
     6      (2,10,8)              1.0000484     
     7      (1,11,6)              1.17780281E-02
     8      (1,12,7)              1.12382833E-02
     9      (2,11,7)              1.0211972     
     10     (1,11,9)              2.62793437E-03
     11     (1,12,8)              1.09884865E-02
     12     (2,11,8)              1.0002665     
     13     (1,10,3)             -3.76811043E-04
     14     (1,11,2)             -9.55444536E-04
     15     (2,11,3)             -0.60493094    
     16     (1,10,4)             -1.34297622E-03
     17     (2,11,4)             -0.62907679    
     18     (1,10,5)             -3.27623153E-03
     19     (1,11,6)             -4.02153865E-03
     20     (2,11,5)             -0.65853998    
     21     (1,12,2)             -3.57117043E-03
     22     (2,12,3)             -0.57296543    
     23     (2,12,4)             -0.60703944    
     24     (1,12,6)             -5.42825828E-03
     25     (2,12,5)             -0.64279560    
     26     (1,13,2)             -8.54141108E-04
     27     (2,13,3)             -0.55526980    
     28     (2,13,4)             -0.59484695    
     29     (1,13,6)             -5.79825741E-03
     30     (2,13,5)             -0.63259929    
     31     (1,14,2)             -3.35194058E-03
     32     (1,15,3)              0.0000000     
     33     (2,14,3)             -0.55882572    
     34     (1,15,4)              0.0000000     
     35     (2,14,4)             -0.59002693    
     36     (1,14,6)             -2.53239226E-03
     37     (1,15,5)              0.0000000     
     38     (2,14,5)             -0.62306723    
 -----------------------------------------------




 SFR-1 PACKAGE - SUMMARY OF FLOWS FOR EACH CONTROL VOLUME   PERIOD      2   STEP       15
 --------------------------------------------------------------------------------------------------------------------------------------------------------------------------------------------------------
                                                                                                                                                                                               PERCENT   
   NUMBER   CELLID                  INFLOW      OUTFLOW        GWF        RAINFALL   EVAPORATION     RUNOFF     EXT INFLOW  EXT OUTFLOW    STORAGE      FROM MVR      TO MVR      IN - OUT    DIFFERENCE 
 --------------------------------------------------------------------------------------------------------------------------------------------------------------------------------------------------------
     1      (1,1,1)               0.0000      -24.771      -0.22868      0.0000       0.0000       0.0000       25.000       0.0000       0.0000       0.0000       0.0000       0.0000       0.0000     
     2      (1,2,2)               24.771      -24.416      -0.35500      0.0000       0.0000       0.0000       0.0000       0.0000       0.0000       0.0000       0.0000       0.0000       0.0000     
     3      (1,3,3)               24.416      -24.113      -0.30357      0.0000       0.0000       0.0000       0.0000       0.0000       0.0000       0.0000       0.0000       0.0000       0.0000     
     4      (1,3,4)               24.113      -23.833      -0.28022      0.0000       0.0000       0.0000       0.0000       0.0000       0.0000       0.0000       0.0000       0.0000       0.0000     
     5      (1,4,5)               13.833      -13.533      -0.29961      0.0000       0.0000       0.0000       0.0000       0.0000       0.0000       0.0000       0.0000       0.0000       0.0000     
     6      (1,5,6)               13.533      -13.303      -0.22988      0.0000       0.0000       0.0000       0.0000       0.0000       0.0000       0.0000       0.0000       0.0000       0.0000     
     7      (1,6,6)               13.303      -13.074      -0.22937      0.0000       0.0000       0.0000       0.0000       0.0000       0.0000       0.0000       0.0000       0.0000       0.0000     
     8      (1,7,6)               13.074      -12.845      -0.22885      0.0000       0.0000       0.0000       0.0000       0.0000       0.0000       0.0000       0.0000       0.0000       0.0000     
     9      (1,8,6)               12.845      -12.616      -0.22833      0.0000       0.0000       0.0000       0.0000       0.0000       0.0000       0.0000       0.0000       0.0000       0.0000     
     10     (1,3,5)               10.000      -9.9788      -2.12214E-02  0.0000       0.0000       0.0000       0.0000       0.0000       0.0000       0.0000       0.0000       0.0000       0.0000     
     11     (1,3,6)               9.9788      -9.9589      -1.99133E-02  0.0000       0.0000       0.0000       0.0000       0.0000       0.0000       0.0000       0.0000       0.0000       0.0000     
     12     (1,3,7)               9.9589      -9.9421      -1.67956E-02  0.0000       0.0000       0.0000       0.0000       0.0000       0.0000       0.0000       0.0000       0.0000       0.0000     
     13     (1,4,8)               9.9421      -9.9213      -2.07205E-02  0.0000       0.0000       0.0000       0.0000       0.0000       0.0000       0.0000       0.0000       0.0000       0.0000     
     14     (1,5,8)               9.9213      -9.9056      -1.57906E-02  0.0000       0.0000       0.0000       0.0000       0.0000       0.0000       0.0000       0.0000       0.0000       0.0000     
     15     (1,6,8)               9.9056      -9.8996      -5.93648E-03  0.0000       0.0000       0.0000       0.0000       0.0000       0.0000       0.0000       0.0000       0.0000       0.0000     
     16     (1,5,10)              0.0000      -9.9091      -9.09198E-02  0.0000       0.0000       0.0000       10.000       0.0000       0.0000       0.0000       0.0000       0.0000       0.0000     
     17     (1,5,9)               9.9091      -9.7275      -0.18158      0.0000       0.0000       0.0000       0.0000       0.0000       0.0000       0.0000       0.0000       0.0000       0.0000     
     18     (1,6,8)               9.7275      -9.6006      -0.12690      0.0000       0.0000       0.0000       0.0000       0.0000       0.0000       0.0000       0.0000       0.0000       0.0000     
     19     (1,6,8)               19.500      -19.329      -0.17138      0.0000       0.0000       0.0000       0.0000       0.0000       0.0000       0.0000       0.0000       0.0000       0.0000     
     20     (1,7,7)               19.329      -19.115      -0.21385      0.0000       0.0000       0.0000       0.0000       0.0000       0.0000       0.0000       0.0000       0.0000       0.0000     
     21     (1,8,7)               19.115      -18.966      -0.14944      0.0000       0.0000       0.0000       0.0000       0.0000       0.0000       0.0000       0.0000       0.0000       0.0000     
     22     (1,8,6)               18.966      -18.859      -0.10661      0.0000       0.0000       0.0000       0.0000       0.0000       0.0000       0.0000       0.0000       0.0000       0.0000     
     23     (1,9,6)               31.475       0.0000      -0.24837      0.0000       0.0000       0.0000       0.0000       0.0000       0.0000       0.0000      -31.227       0.0000       0.0000     
     24     (1,12,7)              0.0000      -32.603      -2.55041E-02  0.0000       0.0000       0.0000       0.0000       0.0000       0.0000       32.628       0.0000       0.0000       0.0000     
     25     (1,13,7)              32.603      -32.575      -2.80505E-02  0.0000       0.0000       0.0000       0.0000       0.0000       0.0000       0.0000       0.0000       0.0000       0.0000     
     26     (1,14,9)              0.0000      -147.31      -2.6922       0.0000       0.0000       0.0000       150.00       0.0000       0.0000       0.0000       0.0000       0.0000       0.0000     
     27     (1,13,8)              147.31      -144.63      -2.6825       0.0000       0.0000       0.0000       0.0000       0.0000       0.0000       0.0000       0.0000       0.0000       0.0000     
     28     (1,13,7)              144.63      -141.95      -2.6727       0.0000       0.0000       0.0000       0.0000       0.0000       0.0000       0.0000       0.0000       0.0000       0.0000     
     29     (1,13,6)              174.53       0.0000       1.3826       0.0000       0.0000       0.0000       0.0000      -6.02606E-09  0.0000       0.0000      -175.91       0.0000       0.0000     
     30     (1,13,2)              0.0000      -189.31       2.9147       0.0000       0.0000       0.0000       0.0000       0.0000       0.0000       186.39       0.0000       0.0000       0.0000     
     31     (1,13,1)              189.31       0.0000       1.3220       0.0000       0.0000       0.0000       0.0000      -197.12       0.0000       6.4959       0.0000       0.0000       0.0000     
 --------------------------------------------------------------------------------------------------------------------------------------------------------------------------------------------------------



 LAK-1 PACKAGE - SUMMARY OF FLOWS FOR EACH CONTROL VOLUME   PERIOD      2   STEP       15
 -----------------------------------------------------------------------------------------------------------------------------------------------------------------------------------
                                                                                                                                                                          PERCENT   
   NUMBER       GWF        RAINFALL   EVAPORATION     RUNOFF     EXT INFLOW   WITHDRAWAL  EXT OUTFLOW    STORAGE      CONSTANT     FROM MVR      TO MVR      IN - OUT    DIFFERENCE 
 -----------------------------------------------------------------------------------------------------------------------------------------------------------------------------------
     1      -4.1003       5.0000      -1.0000       1.5000       0.0000       0.0000       0.0000       1.31950E-03  0.0000       31.227      -32.628       2.36809E-08  6.27667E-08
     2       7.3015       3.6000      -3.3000       3.0000       0.0000      -0.12000     -1.00155E-09 -8.80096E-05  0.0000       175.91      -186.39       7.36555E-07  3.88046E-07
 -----------------------------------------------------------------------------------------------------------------------------------------------------------------------------------



 WATER MOVER PACKAGE (MVR) FLOW RATES   PERIOD      2   STEP       15
 --------------------------------------------------------------------------------------------------------------------------
                                               PROVIDER  AVAILABLE   PROVIDED                                     RECEIVER 
   NUMBER           PROVIDER LOCATION             ID        RATE       RATE            RECEIVER LOCATION             ID    
 --------------------------------------------------------------------------------------------------------------------------
     1                  E13/SFR-1                 23      31.2       31.2                  E13/LAK-1                 1     
     2                  E13/LAK-1                 1       32.6       32.6                  E13/SFR-1                 24    
     3                  E13/SFR-1                 29      176.       176.                  E13/LAK-1                 2     
     4                  E13/LAK-1                 2       186.       186.                  E13/SFR-1                 30    
     5                  E13/UZF-1                 1       0.00       0.00                  E13/SFR-1                 1     
     6                  E13/UZF-1                 2       0.00       0.00                  E13/SFR-1                 2     
     7                  E13/UZF-1                 3       0.00       0.00                  E13/SFR-1                 2     
     8                  E13/UZF-1                 4       0.00       0.00                  E13/SFR-1                 2     
     9                  E13/UZF-1                 5       0.00       0.00                  E13/SFR-1                 3     
     10                 E13/UZF-1                 6       0.00       0.00                  E13/SFR-1                 11    
     11                 E13/UZF-1                 7       0.00       0.00                  E13/SFR-1                 12    
     12                 E13/UZF-1                 8       0.00       0.00                  E13/SFR-1                 12    
     13                 E13/UZF-1                 9       0.00       0.00                  E13/SFR-1                 2     
     14                 E13/UZF-1                 10      0.00       0.00                  E13/SFR-1                 3     
     15                 E13/UZF-1                 11      0.00       0.00                  E13/SFR-1                 4     
     16                 E13/UZF-1                 12      0.00       0.00                  E13/SFR-1                 10    
     17                 E13/UZF-1                 13      0.00       0.00                  E13/SFR-1                 11    
     18                 E13/UZF-1                 14      0.00       0.00                  E13/SFR-1                 12    
     19                 E13/UZF-1                 15      0.00       0.00                  E13/SFR-1                 13    
     20                 E13/UZF-1                 16      0.00       0.00                  E13/LAK-1                 2     
     21                 E13/UZF-1                 17      0.00       0.00                  E13/LAK-1                 2     
     22                 E13/UZF-1                 18      0.00       0.00                  E13/SFR-1                 3     
     23                 E13/UZF-1                 19      0.00       0.00                  E13/SFR-1                 4     
     24                 E13/UZF-1                 20      0.00       0.00                  E13/SFR-1                 5     
     25                 E13/UZF-1                 21      0.00       0.00                  E13/SFR-1                 6     
     26                 E13/UZF-1                 22      0.00       0.00                  E13/SFR-1                 6     
     27                 E13/UZF-1                 23      0.00       0.00                  E13/SFR-1                 13    
     28                 E13/UZF-1                 24      0.00       0.00                  E13/SFR-1                 17    
     29                 E13/UZF-1                 25      0.00       0.00                  E13/LAK-1                 2     
     30                 E13/UZF-1                 26      0.00       0.00                  E13/LAK-1                 2     
     31                 E13/UZF-1                 27      0.00       0.00                  E13/LAK-1                 2     
     32                 E13/UZF-1                 28      0.00       0.00                  E13/LAK-1                 2     
     33                 E13/UZF-1                 29      0.00       0.00                  E13/SFR-1                 5     
     34                 E13/UZF-1                 30      0.00       0.00                  E13/SFR-1                 6     
     35                 E13/UZF-1                 31      0.00       0.00                  E13/SFR-1                 6     
     36                 E13/UZF-1                 32      0.00       0.00                  E13/SFR-1                 14    
     37                 E13/UZF-1                 33      0.00       0.00                  E13/SFR-1                 17    
     38                 E13/UZF-1                 34      0.00       0.00                  E13/SFR-1                 16    
     39                 E13/UZF-1                 35      0.00       0.00                  E13/LAK-1                 2     
     40                 E13/UZF-1                 36      0.00       0.00                  E13/LAK-1                 2     
     41                 E13/UZF-1                 37      0.00       0.00                  E13/LAK-1                 2     
     42                 E13/UZF-1                 38      0.00       0.00                  E13/LAK-1                 2     
     43                 E13/UZF-1                 39      0.00       0.00                  E13/LAK-1                 2     
     44                 E13/UZF-1                 40      0.00       0.00                  E13/SFR-1                 7     
     45                 E13/UZF-1                 41      0.00       0.00                  E13/SFR-1                 7     
     46                 E13/UZF-1                 42      0.00       0.00                  E13/SFR-1                 19    
     47                 E13/UZF-1                 43      0.00       0.00                  E13/SFR-1                 17    
     48                 E13/UZF-1                 44      0.00       0.00                  E13/SFR-1                 16    
     49                 E13/UZF-1                 45      0.00       0.00                  E13/LAK-1                 2     
     50                 E13/UZF-1                 46      0.00       0.00                  E13/LAK-1                 2     
     51                 E13/UZF-1                 47      0.00       0.00                  E13/LAK-1                 2     
     52                 E13/UZF-1                 48      0.00       0.00                  E13/LAK-1                 2     
     53                 E13/UZF-1                 49      0.00       0.00                  E13/LAK-1                 2     
     54                 E13/UZF-1                 50      0.00       0.00                  E13/SFR-1                 8     
     55                 E13/UZF-1                 51      0.00       0.00                  E13/SFR-1                 20    
     56                 E13/UZF-1                 52      0.00       0.00                  E13/SFR-1                 20    
     57                 E13/UZF-1                 53      0.00       0.00                  E13/SFR-1                 20    
     58                 E13/UZF-1                 54      0.00       0.00                  E13/LAK-1                 2     
     59                 E13/UZF-1                 55      0.00       0.00                  E13/LAK-1                 2     
     60                 E13/UZF-1                 56      0.00       0.00                  E13/LAK-1                 2     
     61                 E13/UZF-1                 57      0.00       0.00                  E13/LAK-1                 2     
     62                 E13/UZF-1                 58      0.00       0.00                  E13/SFR-1                 9     
     63                 E13/UZF-1                 59      0.00       0.00                  E13/SFR-1                 21    
     64                 E13/UZF-1                 60      0.00       0.00                  E13/SFR-1                 21    
     65                 E13/UZF-1                 61      0.00       0.00                  E13/SFR-1                 21    
     66                 E13/UZF-1                 62      0.00       0.00                  E13/LAK-1                 2     
     67                 E13/UZF-1                 63      0.00       0.00                  E13/LAK-1                 2     
     68                 E13/UZF-1                 64      0.00       0.00                  E13/LAK-1                 2     
     69                 E13/UZF-1                 65      0.00       0.00                  E13/LAK-1                 2     
     70                 E13/UZF-1                 66      0.00       0.00                  E13/SFR-1                 23    
     71                 E13/UZF-1                 67      0.00       0.00                  E13/LAK-1                 1     
     72                 E13/UZF-1                 68      0.00       0.00                  E13/LAK-1                 1     
     73                 E13/UZF-1                 69      0.00       0.00                  E13/LAK-1                 1     
     74                 E13/UZF-1                 70      0.00       0.00                  E13/LAK-1                 2     
     75                 E13/UZF-1                 71      0.00       0.00                  E13/LAK-1                 2     
     76                 E13/UZF-1                 72      0.00       0.00                  E13/LAK-1                 2     
     77                 E13/UZF-1                 73      0.00       0.00                  E13/LAK-1                 2     
     78                 E13/UZF-1                 74      0.00       0.00                  E13/LAK-1                 1     
     79                 E13/UZF-1                 75      0.00       0.00                  E13/LAK-1                 1     
     80                 E13/UZF-1                 76      0.00       0.00                  E13/LAK-1                 1     
     81                 E13/UZF-1                 77      0.00       0.00                  E13/LAK-1                 2     
     82                 E13/UZF-1                 78      0.00       0.00                  E13/SFR-1                 9     
     83                 E13/UZF-1                 79      0.00       0.00                  E13/LAK-1                 1     
     84                 E13/UZF-1                 80      0.00       0.00                  E13/SFR-1                 31    
     85                 E13/UZF-1                 81      0.00       0.00                  E13/SFR-1                 30    
     86                 E13/UZF-1                 82      0.00       0.00                  E13/SFR-1                 9     
     87                 E13/UZF-1                 83      0.00       0.00                  E13/SFR-1                 24    
     88                 E13/UZF-1                 84      0.00       0.00                  E13/LAK-1                 1     
     89                 E13/UZF-1                 85      0.00       0.00                  E13/LAK-1                 1     
     90                 E13/UZF-1                 86      6.50       6.50                  E13/SFR-1                 31    
     91                 E13/UZF-1                 87      0.00       0.00                  E13/SFR-1                 30    
     92                 E13/UZF-1                 88      0.00       0.00                  E13/SFR-1                 29    
     93                 E13/UZF-1                 89      0.00       0.00                  E13/SFR-1                 28    
     94                 E13/UZF-1                 90      0.00       0.00                  E13/SFR-1                 27    
     95                 E13/UZF-1                 91      0.00       0.00                  E13/SFR-1                 26    
     96                 E13/UZF-1                 92      0.00       0.00                  E13/SFR-1                 30    
     97                 E13/UZF-1                 93      0.00       0.00                  E13/LAK-1                 2     
     98                 E13/UZF-1                 94      0.00       0.00                  E13/SFR-1                 28    
     99                 E13/UZF-1                 95      0.00       0.00                  E13/SFR-1                 27    
    100                 E13/UZF-1                 96      0.00       0.00                  E13/SFR-1                 26    
    101                 E13/UZF-1                 97      0.00       0.00                  E13/LAK-1                 2     
    102                 E13/UZF-1                 98      0.00       0.00                  E13/LAK-1                 2     
    103                 E13/UZF-1                 99      0.00       0.00                  E13/LAK-1                 2     
    104                 E13/UZF-1                100      0.00       0.00                  E13/LAK-1                 2     
    105                 E13/WEL-1                 1       0.00       0.00                  E13/UZF-1                 38    
    106                 E13/WEL-1                 2       0.00       0.00                  E13/UZF-1                 39    
    107                 E13/WEL-1                 3       0.00       0.00                  E13/UZF-1                 48    
    108                 E13/WEL-1                 4       0.00       0.00                  E13/UZF-1                 49    
    109                 E13/WEL-1                 5       0.00       0.00                  E13/UZF-1                 56    
    110                 E13/WEL-1                 6       0.00       0.00                  E13/UZF-1                 57    
    111                 E13/WEL-1                 7       0.00       0.00                  E13/UZF-1                 64    
    112                 E13/WEL-1                 8       0.00       0.00                  E13/UZF-1                 65    
    113                 E13/WEL-1                 9       0.00       0.00                  E13/UZF-1                 72    
    114                 E13/WEL-1                 10      0.00       0.00                  E13/UZF-1                 73    
 --------------------------------------------------------------------------------------------------------------------------



 SFR PACKAGE (SFR-1) STAGES FOR EACH CONTROL VOLUME   PERIOD      2   STEP       15
 ------------------------------------------------------------------------------------------------------------------------------------------------------
                                                                                                                               STREAMBED    STREAMBED  
 NAME                                       NUMBER   CELLID                  STAGE        DEPTH        WIDTH       GWF HEAD   CONDUCTANCE    GRADIENT  
 ------------------------------------------------------------------------------------------------------------------------------------------------------
 ALLREACHES                                   1      (1,1,1)               1094.3       1.2349       12.000       1019.4       5.40000E-02  1.4116     
 ALLREACHES                                   2      (1,2,2)               1089.3       1.2262       12.000       1019.7       8.40000E-02  1.4087     
 ALLREACHES                                   3      (1,3,3)               1083.6       1.2163       12.000       1019.4       7.20000E-02  1.4054     
 ALLREACHES                                   4      (1,3,4)               1078.6       1.2075       12.000       1019.3       6.66000E-02  1.4025     
 ALLREACHES                                   5      (1,4,5)               1072.8       0.84113      12.000       1019.3       7.80000E-02  1.2804     
 ALLREACHES                                   6      (1,5,6)               1067.3       0.83133      12.000       1019.0       6.00000E-02  1.2771     
 ALLREACHES                                   7      (1,6,6)               1062.6       0.82276      12.000       1018.9       6.00000E-02  1.2743     
 ALLREACHES                                   8      (1,7,6)               1057.9       0.81415      12.000       1018.7       6.00000E-02  1.2714     
 ALLREACHES                                   9      (1,8,6)               1053.2       0.80551      12.000       1018.7       6.00000E-02  1.2685     
 ALLREACHES                                   10     (1,3,5)               1074.6       0.93630      9.6364       1018.5       7.22727E-03  1.4681     
 ALLREACHES                                   11     (1,3,6)               1071.9       0.98022      8.9091       1018.5       6.68182E-03  1.4901     
 ALLREACHES                                   12     (1,3,7)               1069.3       1.0277       8.2182       1018.5       5.54727E-03  1.5139     
 ALLREACHES                                   13     (1,4,8)               1066.5       1.0884       7.4545       1018.5       6.70909E-03  1.5442     
 ALLREACHES                                   14     (1,5,8)               1063.6       1.1639       6.6545       1018.5       4.99091E-03  1.5819     
 ALLREACHES                                   15     (1,6,8)               1061.8       1.2200       6.1455       1019.1       1.84364E-03  1.6100     
 ALLREACHES                                   16     (1,5,10)              1078.4       0.63679      10.000       1018.7       2.50000E-02  1.2123     
 ALLREACHES                                   17     (1,5,9)               1071.5       0.63155      10.000       1019.0       5.00000E-02  1.2105     
 ALLREACHES                                   18     (1,6,8)               1063.8       0.62558      10.000       1019.1       3.50000E-02  1.2085     
 ALLREACHES                                   19     (1,6,8)               1060.0       1.2846       10.000       1019.1       4.00000E-02  1.4282     
 ALLREACHES                                   20     (1,7,7)               1056.9       1.2770       10.000       1018.8       5.00000E-02  1.4257     
 ALLREACHES                                   21     (1,8,7)               1054.1       1.2697       10.000       1018.6       3.50000E-02  1.4232     
 ALLREACHES                                   22     (1,8,6)               1052.1       1.2646       10.000       1018.7       2.50000E-02  1.4215     
 ALLREACHES                                   23     (1,9,6)               1046.6       1.1396       12.000       1018.2       6.00000E-02  1.3799     
 ALLREACHES                                   24     (1,12,7)              1037.7       1.2507       12.000       1018.8       6.00000E-03  1.4169     
 ALLREACHES                                   25     (1,13,7)              1030.2       1.2501       12.000       1021.5       6.60000E-03  1.4167     
 ALLREACHES                                   26     (1,14,9)              1034.8       1.4870       60.000       1026.3       0.60000      1.4957     
 ALLREACHES                                   27     (1,13,8)              1031.5       1.4708       60.000       1023.4       0.60000      1.4903     
 ALLREACHES                                   28     (1,13,7)              1028.1       1.4546       60.000       1021.5       0.60000      1.4849     
 ALLREACHES                                   29     (1,13,6)              1013.9       0.90774      60.000       1016.2       0.60000     -0.76814    
 ALLREACHES                                   30     (1,13,2)              998.29       1.4171       60.000       1003.2       0.60000     -1.6193     
 ALLREACHES                                   31     (1,13,1)              993.33       1.4557       60.000       997.00       0.36000     -1.2241     
 ------------------------------------------------------------------------------------------------------------------------------------------------------



 LAK PACKAGE (LAK-1) STAGES FOR EACH CONTROL VOLUME   PERIOD      2   STEP       15
 --------------------------------------------------------------
   NUMBER      STAGE     SURFACE AREA WETTED AREA     VOLUME   
 --------------------------------------------------------------
     1       1041.3       1.00000E+08  1.01383E+08  4.27514E+09
     2       1001.4       3.00000E+08  3.01396E+08  5.29815E+09
 --------------------------------------------------------------



 HEAD WILL BE SAVED ON UNIT 1026 AT END OF TIME STEP   15, STRESS PERIOD    2


  SFR-1 BUDGET FOR ENTIRE MODEL AT END OF TIME STEP   15, STRESS PERIOD   2
  ------------------------------------------------------------------------------

     CUMULATIVE SFR-1      L**3       RATES FOR THIS TIME STEP      L**3/T
     ------------------                 ------------------------

           IN:                                      IN:
           ---                                      ---
                 GWF =    28891473.7534                   GWF =           5.6194
            RAINFALL =           0.0000              RAINFALL =           0.0000
         EVAPORATION =           0.0000           EVAPORATION =           0.0000
              RUNOFF =           0.0000                RUNOFF =           0.0000
          EXT-INFLOW =   972360000.0000            EXT-INFLOW =         185.0000
         EXT-OUTFLOW =           0.0000           EXT-OUTFLOW =           0.0000
             STORAGE =           0.0000               STORAGE =           0.0000
            FROM-MVR =  1182411692.3294              FROM-MVR =         225.5152
              TO-MVR =           0.0000                TO-MVR =           0.0000

            TOTAL IN =  2183663166.0828              TOTAL IN =         416.1346

          OUT:                                     OUT:
          ----                                     ----
                 GWF =    62409364.4783                   GWF =          11.8739
            RAINFALL =           0.0000              RAINFALL =           0.0000
         EVAPORATION =           0.0000           EVAPORATION =           0.0000
              RUNOFF =           0.0000                RUNOFF =           0.0000
          EXT-INFLOW =           0.0000            EXT-INFLOW =           0.0000
         EXT-OUTFLOW =  1032565803.5319           EXT-OUTFLOW =         197.1238
             STORAGE =           0.0000               STORAGE =           0.0000
            FROM-MVR =           0.0000              FROM-MVR =           0.0000
              TO-MVR =  1088687998.0726                TO-MVR =         207.1368

           TOTAL OUT =  2183663166.0828             TOTAL OUT =         416.1346

            IN - OUT =           0.0000              IN - OUT =           0.0000

 PERCENT DISCREPANCY =           0.00     PERCENT DISCREPANCY =           0.00



  LAK-1 BUDGET FOR ENTIRE MODEL AT END OF TIME STEP   15, STRESS PERIOD   2
  ------------------------------------------------------------------------------

     CUMULATIVE LAK-1      L**3       RATES FOR THIS TIME STEP      L**3/T
     ------------------                 ------------------------

           IN:                                      IN:
           ---                                      ---
                 GWF =    38400651.9614                   GWF =           7.3015
            RAINFALL =    45201600.0000              RAINFALL =           8.6000
         EVAPORATION =           0.0000           EVAPORATION =           0.0000
              RUNOFF =    23652000.0000                RUNOFF =           4.5000
          EXT-INFLOW =           0.0000            EXT-INFLOW =           0.0000
          WITHDRAWAL =           0.0000            WITHDRAWAL =           0.0000
         EXT-OUTFLOW =           0.0000           EXT-OUTFLOW =           0.0000
             STORAGE =        2970.4861               STORAGE =       1.3195E-03
            CONSTANT =           0.0000              CONSTANT =           0.0000
            FROM-MVR =  1088687998.0726              FROM-MVR =         207.1368
              TO-MVR =           0.0000                TO-MVR =           0.0000

            TOTAL IN =  1195945220.5201              TOTAL IN =         227.5396

          OUT:                                     OUT:
          ----                                     ----
                 GWF =    21542260.8042                   GWF =           4.1003
            RAINFALL =           0.0000              RAINFALL =           0.0000
         EVAPORATION =    22600800.0000           EVAPORATION =           4.3000
              RUNOFF =           0.0000                RUNOFF =           0.0000
          EXT-INFLOW =           0.0000            EXT-INFLOW =           0.0000
          WITHDRAWAL =      630720.0000            WITHDRAWAL =           0.1200
         EXT-OUTFLOW =           0.4679           EXT-OUTFLOW =       1.0016E-09
             STORAGE =          64.9850               STORAGE =       8.8010E-05
            CONSTANT =           0.0000              CONSTANT =           0.0000
            FROM-MVR =           0.0000              FROM-MVR =           0.0000
              TO-MVR =  1151171372.7897                TO-MVR =         219.0193

           TOTAL OUT =  1195945219.0468             TOTAL OUT =         227.5396

            IN - OUT =           1.4734              IN - OUT =       7.6024E-07

 PERCENT DISCREPANCY =           0.00     PERCENT DISCREPANCY =           0.00



  UZF-1 BUDGET FOR ENTIRE MODEL AT END OF TIME STEP   15, STRESS PERIOD   2
  ------------------------------------------------------------------------------

     CUMULATIVE UZF-1      L**3       RATES FOR THIS TIME STEP      L**3/T
     ------------------                 ------------------------

           IN:                                      IN:
           ---                                      ---
                 GWF =           0.0000                   GWF =           0.0000
        INFILTRATION =   810889635.6000          INFILTRATION =         306.0000
             REJ-INF =           0.0000               REJ-INF =           0.0000
                UZET =           0.0000                  UZET =           0.0000
             STORAGE =      385700.7510               STORAGE =           0.4554
            FROM-MVR =           0.0000              FROM-MVR =           0.0000
      REJ-INF-TO-MVR =           0.0000        REJ-INF-TO-MVR =           0.0000

            TOTAL IN =   811275336.3510              TOTAL IN =         306.4554

          OUT:                                     OUT:
          ----                                     ----
                 GWF =     8848383.5691                   GWF =           1.7908
        INFILTRATION =           0.0000          INFILTRATION =           0.0000
             REJ-INF =           2.2794               REJ-INF =       2.7845E-06
                UZET =    63946583.9225                  UZET =          24.3301
             STORAGE =   735830425.0595               STORAGE =         279.3345
            FROM-MVR =           0.0000              FROM-MVR =           0.0000
      REJ-INF-TO-MVR =     2649942.5587        REJ-INF-TO-MVR =           1.0000

           TOTAL OUT =   811275337.3891             TOTAL OUT =         306.4554

            IN - OUT =          -1.0381              IN - OUT =      -2.1032E-12

 PERCENT DISCREPANCY =          -0.00     PERCENT DISCREPANCY =          -0.00



  WATER MOVER BUDGET FOR ENTIRE MODEL AT END OF TIME STEP   15, STRESS PERIOD   2
  ------------------------------------------------------------------------------

     CUMULATIVE WATER MOVER      L**3       RATES FOR THIS TIME STEP      L**3/T
     ------------------                 ------------------------

           IN:                                      IN:
           ---                                      ---
               UZF-1 =    31240319.5397                 UZF-1 =           6.4959
               SFR-1 =  1088687998.0726                 SFR-1 =         207.1368
               LAK-1 =  1151171372.7897                 LAK-1 =         219.0193
               WEL-1 =           0.0000                 WEL-1 =           0.0000

            TOTAL IN =  2271099690.4020              TOTAL IN =         432.6520

          OUT:                                     OUT:
          ----                                     ----
               UZF-1 =           0.0000                 UZF-1 =           0.0000
               SFR-1 =  1182411692.3294                 SFR-1 =         225.5152
               LAK-1 =  1088687998.0726                 LAK-1 =         207.1368
               WEL-1 =           0.0000                 WEL-1 =           0.0000

           TOTAL OUT =  2271099690.4020             TOTAL OUT =         432.6520

            IN - OUT =           0.0000              IN - OUT =           0.0000

 PERCENT DISCREPANCY =           0.00     PERCENT DISCREPANCY =           0.00



  VOLUME BUDGET FOR ENTIRE MODEL AT END OF TIME STEP   15, STRESS PERIOD   2
  ---------------------------------------------------------------------------------------------------

     CUMULATIVE VOLUME      L**3       RATES FOR THIS TIME STEP      L**3/T          PACKAGE NAME    
     ------------------                 ------------------------                     ----------------

           IN:                                      IN:
           ---                                      ---
              STO-SS =       27233.6463                STO-SS =       8.5672E-03     STORAGE                          
              STO-SY =     5504119.7846                STO-SY =           2.0056     STORAGE                          
                 WEL =           0.0000                   WEL =           0.0000     WEL-1                            
          WEL-TO-MVR =           0.0000            WEL-TO-MVR =           0.0000     WEL-1                            
                 GHB =     3736242.0473                   GHB =           0.7110     GHB_0                            
                 SFR =    62409364.4783                   SFR =          11.8739     SFR-1                            
                 LAK =    21542260.8042                   LAK =           4.1003     LAK-1                            
           UZF-GWRCH =     8848383.5691             UZF-GWRCH =           1.7908     UZF-1                            
             UZF-GWD =           0.0000               UZF-GWD =           0.0000     UZF-1                            
      UZF-GWD TO-MVR =           0.0000        UZF-GWD TO-MVR =           0.0000     UZF-1                            
            UZF-GWET =           0.0000              UZF-GWET =           0.0000     UZF-1                            

            TOTAL IN =   102067604.3297              TOTAL IN =          20.4901

          OUT:                                     OUT:
          ----                                     ----
              STO-SS =        1111.1894                STO-SS =       1.2266E-03     STORAGE                          
              STO-SY =     1280529.4108                STO-SY =           1.2088     STORAGE                          
                 WEL =           0.0000                   WEL =           0.0000     WEL-1                            
          WEL-TO-MVR =           0.0000            WEL-TO-MVR =           0.0000     WEL-1                            
                 GHB =     1798127.9310                   GHB =           0.3421     GHB_0                            
                 SFR =    28891517.3017                   SFR =           5.6195     SFR-1                            
                 LAK =    38400651.9614                   LAK =           7.3015     LAK-1                            
           UZF-GWRCH =           0.0000             UZF-GWRCH =           0.0000     UZF-1                            
             UZF-GWD =          12.4737               UZF-GWD =       1.5303E-05     UZF-1                            
      UZF-GWD TO-MVR =    28590376.9811        UZF-GWD TO-MVR =           5.4959     UZF-1                            
            UZF-GWET =     3104509.9400              UZF-GWET =           0.5201     UZF-1                            

           TOTAL OUT =   102066837.1890             TOTAL OUT =          20.4892

            IN - OUT =         767.1408              IN - OUT =       9.4484E-04

 PERCENT DISCREPANCY =           0.00     PERCENT DISCREPANCY =           0.00




         TIME SUMMARY AT END OF TIME STEP   15 IN STRESS PERIOD    2
                    SECONDS     MINUTES      HOURS       DAYS        YEARS
                    -----------------------------------------------------------
   TIME STEP LENGTH 1.75200E+05  2920.0      48.667      2.0278     5.55175E-03
 STRESS PERIOD TIME 2.62800E+06  43800.      730.00      30.417     8.32763E-02
         TOTAL TIME 5.25600E+06  87600.      1460.0      60.833     0.16655    


end timestep


start timestep kper="3" kstp="1" mode="normal"


 OUTPUT CONTROL FOR STRESS PERIOD 3 IS REPEATED USING SETTINGS FROM A PREVIOUS STRESS PERIOD.


 STRESS PERIOD 3 IS TRANSIENT


 REUSING MVRS FROM LAST STRESS PERIOD
 ----------------------------------
  WEL NO.    LAYER    ROW     COL  
 ----------------------------------
     1         1       4       8   
     2         1       4       9   
     3         1       5       8   
     4         1       5       9   
     5         1       6       6   
     6         1       6       7   
     7         1       7       4   
     8         1       7       5   
     9         1       8       2   
     10        1       8       3   
 ----------------------------------



 REUSING SFRS FROM LAST STRESS PERIOD

 REUSING LAKS FROM LAST STRESS PERIOD

end timestep


start timestep kper="3" kstp="2" mode="normal"


end timestep


start timestep kper="3" kstp="3" mode="normal"


end timestep


start timestep kper="3" kstp="4" mode="normal"


end timestep


start timestep kper="3" kstp="5" mode="normal"


end timestep


start timestep kper="3" kstp="6" mode="normal"


end timestep


start timestep kper="3" kstp="7" mode="normal"


end timestep


start timestep kper="3" kstp="8" mode="normal"


end timestep


start timestep kper="3" kstp="9" mode="normal"


end timestep


start timestep kper="3" kstp="10" mode="normal"


end timestep


start timestep kper="3" kstp="11" mode="normal"


end timestep


start timestep kper="3" kstp="12" mode="normal"


end timestep


start timestep kper="3" kstp="13" mode="normal"


end timestep


start timestep kper="3" kstp="14" mode="normal"


end timestep


start timestep kper="3" kstp="15" mode="normal"

 UBDSV1 SAVING           STO-SS ON UNIT   1025 AT TIME STEP     15, STRESS PERIOD      3
 UBDSV1 SAVING           STO-SY ON UNIT   1025 AT TIME STEP     15, STRESS PERIOD      3
 UBDSV1 SAVING     FLOW-JA-FACE ON UNIT   1025 AT TIME STEP     15, STRESS PERIOD      3
 UBDSV06 SAVING       DATA-SPDIS IN MODEL E13              PACKAGE NPF             CONNECTED TO MODEL E13              PACKAGE NPF              ON UNIT   1025 AT TIME STEP     15, STRESS PERIOD      3
 UBDSV06 SAVING              WEL IN MODEL E13              PACKAGE E13             CONNECTED TO MODEL E13              PACKAGE WEL-1            ON UNIT   1025 AT TIME STEP     15, STRESS PERIOD      3
 UBDSV06 SAVING       WEL-TO-MVR IN MODEL E13              PACKAGE E13             CONNECTED TO MODEL E13              PACKAGE WEL-1            ON UNIT   1025 AT TIME STEP     15, STRESS PERIOD      3
 UBDSV06 SAVING              GHB IN MODEL E13              PACKAGE E13             CONNECTED TO MODEL E13              PACKAGE GHB_0            ON UNIT   1025 AT TIME STEP     15, STRESS PERIOD      3
 UBDSV06 SAVING              SFR IN MODEL E13              PACKAGE E13             CONNECTED TO MODEL E13              PACKAGE SFR-1            ON UNIT   1025 AT TIME STEP     15, STRESS PERIOD      3
 UBDSV06 SAVING              LAK IN MODEL E13              PACKAGE E13             CONNECTED TO MODEL E13              PACKAGE LAK-1            ON UNIT   1025 AT TIME STEP     15, STRESS PERIOD      3
 UBDSV06 SAVING        UZF-GWRCH IN MODEL E13              PACKAGE E13             CONNECTED TO MODEL E13              PACKAGE UZF-1            ON UNIT   1025 AT TIME STEP     15, STRESS PERIOD      3
 UBDSV06 SAVING          UZF-GWD IN MODEL E13              PACKAGE E13             CONNECTED TO MODEL E13              PACKAGE UZF-1            ON UNIT   1025 AT TIME STEP     15, STRESS PERIOD      3
 UBDSV06 SAVING   UZF-GWD TO-MVR IN MODEL E13              PACKAGE E13             CONNECTED TO MODEL E13              PACKAGE UZF-1            ON UNIT   1025 AT TIME STEP     15, STRESS PERIOD      3
 UBDSV06 SAVING         UZF-GWET IN MODEL E13              PACKAGE E13             CONNECTED TO MODEL E13              PACKAGE UZF-1            ON UNIT   1025 AT TIME STEP     15, STRESS PERIOD      3
 UBDSV06 SAVING     FLOW-JA-FACE IN MODEL E13              PACKAGE SFR-1           CONNECTED TO MODEL E13              PACKAGE SFR-1            ON UNIT   1017 AT TIME STEP     15, STRESS PERIOD      3
 UBDSV06 SAVING              GWF IN MODEL E13              PACKAGE SFR-1           CONNECTED TO MODEL E13              PACKAGE E13              ON UNIT   1017 AT TIME STEP     15, STRESS PERIOD      3
 UBDSV06 SAVING         RAINFALL IN MODEL E13              PACKAGE SFR-1           CONNECTED TO MODEL E13              PACKAGE SFR-1            ON UNIT   1017 AT TIME STEP     15, STRESS PERIOD      3
 UBDSV06 SAVING      EVAPORATION IN MODEL E13              PACKAGE SFR-1           CONNECTED TO MODEL E13              PACKAGE SFR-1            ON UNIT   1017 AT TIME STEP     15, STRESS PERIOD      3
 UBDSV06 SAVING           RUNOFF IN MODEL E13              PACKAGE SFR-1           CONNECTED TO MODEL E13              PACKAGE SFR-1            ON UNIT   1017 AT TIME STEP     15, STRESS PERIOD      3
 UBDSV06 SAVING       EXT-INFLOW IN MODEL E13              PACKAGE SFR-1           CONNECTED TO MODEL E13              PACKAGE SFR-1            ON UNIT   1017 AT TIME STEP     15, STRESS PERIOD      3
 UBDSV06 SAVING      EXT-OUTFLOW IN MODEL E13              PACKAGE SFR-1           CONNECTED TO MODEL E13              PACKAGE SFR-1            ON UNIT   1017 AT TIME STEP     15, STRESS PERIOD      3
 UBDSV06 SAVING          STORAGE IN MODEL E13              PACKAGE SFR-1           CONNECTED TO MODEL E13              PACKAGE SFR-1            ON UNIT   1017 AT TIME STEP     15, STRESS PERIOD      3
 UBDSV06 SAVING         FROM-MVR IN MODEL E13              PACKAGE SFR-1           CONNECTED TO MODEL E13              PACKAGE SFR-1            ON UNIT   1017 AT TIME STEP     15, STRESS PERIOD      3
 UBDSV06 SAVING           TO-MVR IN MODEL E13              PACKAGE SFR-1           CONNECTED TO MODEL E13              PACKAGE SFR-1            ON UNIT   1017 AT TIME STEP     15, STRESS PERIOD      3
 UBDSV06 SAVING              GWF IN MODEL E13              PACKAGE LAK-1           CONNECTED TO MODEL E13              PACKAGE E13              ON UNIT   1019 AT TIME STEP     15, STRESS PERIOD      3
 UBDSV06 SAVING         RAINFALL IN MODEL E13              PACKAGE LAK-1           CONNECTED TO MODEL E13              PACKAGE LAK-1            ON UNIT   1019 AT TIME STEP     15, STRESS PERIOD      3
 UBDSV06 SAVING      EVAPORATION IN MODEL E13              PACKAGE LAK-1           CONNECTED TO MODEL E13              PACKAGE LAK-1            ON UNIT   1019 AT TIME STEP     15, STRESS PERIOD      3
 UBDSV06 SAVING           RUNOFF IN MODEL E13              PACKAGE LAK-1           CONNECTED TO MODEL E13              PACKAGE LAK-1            ON UNIT   1019 AT TIME STEP     15, STRESS PERIOD      3
 UBDSV06 SAVING       EXT-INFLOW IN MODEL E13              PACKAGE LAK-1           CONNECTED TO MODEL E13              PACKAGE LAK-1            ON UNIT   1019 AT TIME STEP     15, STRESS PERIOD      3
 UBDSV06 SAVING       WITHDRAWAL IN MODEL E13              PACKAGE LAK-1           CONNECTED TO MODEL E13              PACKAGE LAK-1            ON UNIT   1019 AT TIME STEP     15, STRESS PERIOD      3
 UBDSV06 SAVING      EXT-OUTFLOW IN MODEL E13              PACKAGE LAK-1           CONNECTED TO MODEL E13              PACKAGE LAK-1            ON UNIT   1019 AT TIME STEP     15, STRESS PERIOD      3
 UBDSV06 SAVING          STORAGE IN MODEL E13              PACKAGE LAK-1           CONNECTED TO MODEL E13              PACKAGE LAK-1            ON UNIT   1019 AT TIME STEP     15, STRESS PERIOD      3
 UBDSV06 SAVING         CONSTANT IN MODEL E13              PACKAGE LAK-1           CONNECTED TO MODEL E13              PACKAGE LAK-1            ON UNIT   1019 AT TIME STEP     15, STRESS PERIOD      3
 UBDSV06 SAVING         FROM-MVR IN MODEL E13              PACKAGE LAK-1           CONNECTED TO MODEL E13              PACKAGE LAK-1            ON UNIT   1019 AT TIME STEP     15, STRESS PERIOD      3
 UBDSV06 SAVING           TO-MVR IN MODEL E13              PACKAGE LAK-1           CONNECTED TO MODEL E13              PACKAGE LAK-1            ON UNIT   1019 AT TIME STEP     15, STRESS PERIOD      3
 UBDSV06 SAVING     FLOW-JA-FACE IN MODEL E13              PACKAGE UZF-1           CONNECTED TO MODEL E13              PACKAGE UZF-1            ON UNIT   1021 AT TIME STEP     15, STRESS PERIOD      3
 UBDSV06 SAVING              GWF IN MODEL E13              PACKAGE UZF-1           CONNECTED TO MODEL E13              PACKAGE E13              ON UNIT   1021 AT TIME STEP     15, STRESS PERIOD      3
 UBDSV06 SAVING     INFILTRATION IN MODEL E13              PACKAGE UZF-1           CONNECTED TO MODEL E13              PACKAGE UZF-1            ON UNIT   1021 AT TIME STEP     15, STRESS PERIOD      3
 UBDSV06 SAVING          REJ-INF IN MODEL E13              PACKAGE UZF-1           CONNECTED TO MODEL E13              PACKAGE UZF-1            ON UNIT   1021 AT TIME STEP     15, STRESS PERIOD      3
 UBDSV06 SAVING             UZET IN MODEL E13              PACKAGE UZF-1           CONNECTED TO MODEL E13              PACKAGE UZF-1            ON UNIT   1021 AT TIME STEP     15, STRESS PERIOD      3
 UBDSV06 SAVING          STORAGE IN MODEL E13              PACKAGE UZF-1           CONNECTED TO MODEL E13              PACKAGE UZF-1            ON UNIT   1021 AT TIME STEP     15, STRESS PERIOD      3
 UBDSV06 SAVING         FROM-MVR IN MODEL E13              PACKAGE UZF-1           CONNECTED TO MODEL E13              PACKAGE UZF-1            ON UNIT   1021 AT TIME STEP     15, STRESS PERIOD      3
 UBDSV06 SAVING   REJ-INF-TO-MVR IN MODEL E13              PACKAGE UZF-1           CONNECTED TO MODEL E13              PACKAGE UZF-1            ON UNIT   1021 AT TIME STEP     15, STRESS PERIOD      3
 UBDSV06 SAVING       MOVER-FLOW IN MODEL E13              PACKAGE UZF-1           CONNECTED TO MODEL E13              PACKAGE UZF-1            ON UNIT   1023 AT TIME STEP     15, STRESS PERIOD      3
 UBDSV06 SAVING       MOVER-FLOW IN MODEL E13              PACKAGE UZF-1           CONNECTED TO MODEL E13              PACKAGE SFR-1            ON UNIT   1023 AT TIME STEP     15, STRESS PERIOD      3
 UBDSV06 SAVING       MOVER-FLOW IN MODEL E13              PACKAGE UZF-1           CONNECTED TO MODEL E13              PACKAGE LAK-1            ON UNIT   1023 AT TIME STEP     15, STRESS PERIOD      3
 UBDSV06 SAVING       MOVER-FLOW IN MODEL E13              PACKAGE UZF-1           CONNECTED TO MODEL E13              PACKAGE WEL-1            ON UNIT   1023 AT TIME STEP     15, STRESS PERIOD      3
 UBDSV06 SAVING       MOVER-FLOW IN MODEL E13              PACKAGE SFR-1           CONNECTED TO MODEL E13              PACKAGE UZF-1            ON UNIT   1023 AT TIME STEP     15, STRESS PERIOD      3
 UBDSV06 SAVING       MOVER-FLOW IN MODEL E13              PACKAGE SFR-1           CONNECTED TO MODEL E13              PACKAGE SFR-1            ON UNIT   1023 AT TIME STEP     15, STRESS PERIOD      3
 UBDSV06 SAVING       MOVER-FLOW IN MODEL E13              PACKAGE SFR-1           CONNECTED TO MODEL E13              PACKAGE LAK-1            ON UNIT   1023 AT TIME STEP     15, STRESS PERIOD      3
 UBDSV06 SAVING       MOVER-FLOW IN MODEL E13              PACKAGE SFR-1           CONNECTED TO MODEL E13              PACKAGE WEL-1            ON UNIT   1023 AT TIME STEP     15, STRESS PERIOD      3
 UBDSV06 SAVING       MOVER-FLOW IN MODEL E13              PACKAGE LAK-1           CONNECTED TO MODEL E13              PACKAGE UZF-1            ON UNIT   1023 AT TIME STEP     15, STRESS PERIOD      3
 UBDSV06 SAVING       MOVER-FLOW IN MODEL E13              PACKAGE LAK-1           CONNECTED TO MODEL E13              PACKAGE SFR-1            ON UNIT   1023 AT TIME STEP     15, STRESS PERIOD      3
 UBDSV06 SAVING       MOVER-FLOW IN MODEL E13              PACKAGE LAK-1           CONNECTED TO MODEL E13              PACKAGE LAK-1            ON UNIT   1023 AT TIME STEP     15, STRESS PERIOD      3
 UBDSV06 SAVING       MOVER-FLOW IN MODEL E13              PACKAGE LAK-1           CONNECTED TO MODEL E13              PACKAGE WEL-1            ON UNIT   1023 AT TIME STEP     15, STRESS PERIOD      3
 UBDSV06 SAVING       MOVER-FLOW IN MODEL E13              PACKAGE WEL-1           CONNECTED TO MODEL E13              PACKAGE UZF-1            ON UNIT   1023 AT TIME STEP     15, STRESS PERIOD      3
 UBDSV06 SAVING       MOVER-FLOW IN MODEL E13              PACKAGE WEL-1           CONNECTED TO MODEL E13              PACKAGE SFR-1            ON UNIT   1023 AT TIME STEP     15, STRESS PERIOD      3
 UBDSV06 SAVING       MOVER-FLOW IN MODEL E13              PACKAGE WEL-1           CONNECTED TO MODEL E13              PACKAGE LAK-1            ON UNIT   1023 AT TIME STEP     15, STRESS PERIOD      3
 UBDSV06 SAVING       MOVER-FLOW IN MODEL E13              PACKAGE WEL-1           CONNECTED TO MODEL E13              PACKAGE WEL-1            ON UNIT   1023 AT TIME STEP     15, STRESS PERIOD      3

 WEL PACKAGE (WEL-1) FLOW RATES   PERIOD      3   STEP       15
 -----------------------------------------------
   NUMBER   CELLID                    RATE      
 -----------------------------------------------
     1      (1,6,4)               0.0000000     
     2      (1,6,5)               0.0000000     
     3      (1,7,4)               0.0000000     
     4      (1,7,5)               0.0000000     
     5      (1,8,4)               0.0000000     
     6      (1,8,5)               0.0000000     
     7      (1,9,4)               0.0000000     
     8      (1,9,5)               0.0000000     
     9      (1,10,4)              0.0000000     
     10     (1,10,5)              0.0000000     
 -----------------------------------------------




 WEL PACKAGE (WEL-1) FLOW RATES TO-MVR   PERIOD      3   STEP       15
 -----------------------------------------------
   NUMBER   CELLID                    RATE      
 -----------------------------------------------
     1      (1,6,4)              -0.85000000    
     2      (1,6,5)              -0.85000000    
     3      (1,7,4)              -0.85000000    
     4      (1,7,5)              -0.85000000    
     5      (1,8,4)              -0.85000000    
     6      (1,8,5)              -0.85000000    
     7      (1,9,4)              -0.85000000    
     8      (1,9,5)              -0.85000000    
     9      (1,10,4)             -0.85000000    
     10     (1,10,5)             -0.85000000    
 -----------------------------------------------




 SFR PACKAGE (SFR-1) FLOW RATES   PERIOD      3   STEP       15
 ----------------------------------------------------------------------------------------
   NUMBER   CELLID                    RATE       NAME                                    
 ----------------------------------------------------------------------------------------
     1      (1,1,1)               0.22868377     ALLREACHES                              
     2      (1,2,2)               0.35499870     ALLREACHES                              
     3      (1,3,3)               0.30357347     ALLREACHES                              
     4      (1,3,4)               0.28021936     ALLREACHES                              
     5      (1,4,5)               0.29960805     ALLREACHES                              
     6      (1,5,6)               0.22987955     ALLREACHES                              
     7      (1,6,6)               0.22936563     ALLREACHES                              
     8      (1,7,6)               0.22884928     ALLREACHES                              
     9      (1,8,6)               0.22833044     ALLREACHES                              
     10     (1,3,5)               2.12214188E-02 ALLREACHES                              
     11     (1,3,6)               1.99133007E-02 ALLREACHES                              
     12     (1,3,7)               1.67956407E-02 ALLREACHES                              
     13     (1,4,8)               2.07205450E-02 ALLREACHES                              
     14     (1,5,8)               1.57905563E-02 ALLREACHES                              
     15     (1,6,8)               5.93648362E-03 ALLREACHES                              
     16     (1,5,10)              9.09197693E-02 ALLREACHES                              
     17     (1,5,9)               0.18157734     ALLREACHES                              
     18     (1,6,8)               0.12689514     ALLREACHES                              
     19     (1,6,8)               0.17138468     ALLREACHES                              
     20     (1,7,7)               0.21384773     ALLREACHES                              
     21     (1,8,7)               0.14943953     ALLREACHES                              
     22     (1,8,6)               0.10661428     ALLREACHES                              
     23     (1,9,6)               0.24837387     ALLREACHES                              
     24     (1,12,7)              2.55035059E-02 ALLREACHES                              
     25     (1,13,7)              2.80497895E-02 ALLREACHES                              
     26     (1,14,9)              2.6922030      ALLREACHES                              
     27     (1,13,8)              2.6824902      ALLREACHES                              
     28     (1,13,7)              2.6727412      ALLREACHES                              
     29     (1,13,6)             -1.3841656      ALLREACHES                              
     30     (1,13,2)             -2.9349990      ALLREACHES                              
     31     (1,13,1)             -1.3232428      ALLREACHES                              
 ----------------------------------------------------------------------------------------




 LAK PACKAGE (LAK-1) FLOW RATES   PERIOD      3   STEP       15
 -----------------------------------------------
   NUMBER   CELLID                    RATE      
 -----------------------------------------------
     1      (1,9,7)               8.37071843E-03
     2      (1,10,6)              1.07507953E-02
     3      (2,10,7)              1.0196417     
     4      (1,9,8)               5.99094923E-03
     5      (1,10,9)              1.05181962E-04
     6      (2,10,8)              1.0019066     
     7      (1,11,6)              1.17832938E-02
     8      (1,12,7)              1.12375944E-02
     9      (2,11,7)              1.0234115     
     10     (1,11,9)              2.62790190E-03
     11     (1,12,8)              1.09927743E-02
     12     (2,11,8)              1.0019185     
     13     (1,10,3)             -3.71448322E-04
     14     (1,11,2)             -9.53479239E-04
     15     (2,11,3)             -0.60213553    
     16     (1,10,4)             -1.24617092E-03
     17     (2,11,4)             -0.62557995    
     18     (1,10,5)             -3.12601101E-03
     19     (1,11,6)             -4.01708949E-03
     20     (2,11,5)             -0.65504071    
     21     (1,12,2)             -3.57423090E-03
     22     (2,12,3)             -0.57082672    
     23     (2,12,4)             -0.60456656    
     24     (1,12,6)             -5.42501024E-03
     25     (2,12,5)             -0.64033389    
     26     (1,13,2)             -8.71312965E-04
     27     (2,13,3)             -0.55362420    
     28     (2,13,4)             -0.59302021    
     29     (1,13,6)             -5.79964346E-03
     30     (2,13,5)             -0.63077781    
     31     (1,14,2)             -3.35333250E-03
     32     (1,15,3)              0.0000000     
     33     (2,14,3)             -0.55752358    
     34     (1,15,4)              0.0000000     
     35     (2,14,4)             -0.58863518    
     36     (1,14,6)             -2.52200182E-03
     37     (1,15,5)              0.0000000     
     38     (2,14,5)             -0.62165379    
 -----------------------------------------------




 SFR-1 PACKAGE - SUMMARY OF FLOWS FOR EACH CONTROL VOLUME   PERIOD      3   STEP       15
 --------------------------------------------------------------------------------------------------------------------------------------------------------------------------------------------------------
                                                                                                                                                                                               PERCENT   
   NUMBER   CELLID                  INFLOW      OUTFLOW        GWF        RAINFALL   EVAPORATION     RUNOFF     EXT INFLOW  EXT OUTFLOW    STORAGE      FROM MVR      TO MVR      IN - OUT    DIFFERENCE 
 --------------------------------------------------------------------------------------------------------------------------------------------------------------------------------------------------------
     1      (1,1,1)               0.0000      -24.771      -0.22868      0.0000       0.0000       0.0000       25.000       0.0000       0.0000       0.0000       0.0000       0.0000       0.0000     
     2      (1,2,2)               24.771      -24.416      -0.35500      0.0000       0.0000       0.0000       0.0000       0.0000       0.0000       0.0000       0.0000       0.0000       0.0000     
     3      (1,3,3)               24.416      -24.113      -0.30357      0.0000       0.0000       0.0000       0.0000       0.0000       0.0000       0.0000       0.0000       0.0000       0.0000     
     4      (1,3,4)               24.113      -23.833      -0.28022      0.0000       0.0000       0.0000       0.0000       0.0000       0.0000       0.0000       0.0000       0.0000       0.0000     
     5      (1,4,5)               13.833      -13.533      -0.29961      0.0000       0.0000       0.0000       0.0000       0.0000       0.0000       0.0000       0.0000       0.0000       0.0000     
     6      (1,5,6)               13.533      -13.303      -0.22988      0.0000       0.0000       0.0000       0.0000       0.0000       0.0000       0.0000       0.0000       0.0000       0.0000     
     7      (1,6,6)               13.303      -13.074      -0.22937      0.0000       0.0000       0.0000       0.0000       0.0000       0.0000       0.0000       0.0000       0.0000       0.0000     
     8      (1,7,6)               13.074      -12.845      -0.22885      0.0000       0.0000       0.0000       0.0000       0.0000       0.0000       0.0000       0.0000       0.0000       0.0000     
     9      (1,8,6)               12.845      -12.616      -0.22833      0.0000       0.0000       0.0000       0.0000       0.0000       0.0000       0.0000       0.0000       0.0000       0.0000     
     10     (1,3,5)               10.000      -9.9788      -2.12214E-02  0.0000       0.0000       0.0000       0.0000       0.0000       0.0000       0.0000       0.0000       0.0000       0.0000     
     11     (1,3,6)               9.9788      -9.9589      -1.99133E-02  0.0000       0.0000       0.0000       0.0000       0.0000       0.0000       0.0000       0.0000       0.0000       0.0000     
     12     (1,3,7)               9.9589      -9.9421      -1.67956E-02  0.0000       0.0000       0.0000       0.0000       0.0000       0.0000       0.0000       0.0000       0.0000       0.0000     
     13     (1,4,8)               9.9421      -9.9213      -2.07205E-02  0.0000       0.0000       0.0000       0.0000       0.0000       0.0000       0.0000       0.0000       0.0000       0.0000     
     14     (1,5,8)               9.9213      -9.9056      -1.57906E-02  0.0000       0.0000       0.0000       0.0000       0.0000       0.0000       0.0000       0.0000       0.0000       0.0000     
     15     (1,6,8)               9.9056      -9.8996      -5.93648E-03  0.0000       0.0000       0.0000       0.0000       0.0000       0.0000       0.0000       0.0000       0.0000       0.0000     
     16     (1,5,10)              0.0000      -9.9091      -9.09198E-02  0.0000       0.0000       0.0000       10.000       0.0000       0.0000       0.0000       0.0000       0.0000       0.0000     
     17     (1,5,9)               9.9091      -9.7275      -0.18158      0.0000       0.0000       0.0000       0.0000       0.0000       0.0000       0.0000       0.0000       0.0000       0.0000     
     18     (1,6,8)               9.7275      -9.6006      -0.12690      0.0000       0.0000       0.0000       0.0000       0.0000       0.0000       0.0000       0.0000       0.0000       0.0000     
     19     (1,6,8)               19.500      -19.329      -0.17138      0.0000       0.0000       0.0000       0.0000       0.0000       0.0000       0.0000       0.0000       0.0000       0.0000     
     20     (1,7,7)               19.329      -19.115      -0.21385      0.0000       0.0000       0.0000       0.0000       0.0000       0.0000       0.0000       0.0000       0.0000       0.0000     
     21     (1,8,7)               19.115      -18.966      -0.14944      0.0000       0.0000       0.0000       0.0000       0.0000       0.0000       0.0000       0.0000       0.0000       0.0000     
     22     (1,8,6)               18.966      -18.859      -0.10661      0.0000       0.0000       0.0000       0.0000       0.0000       0.0000       0.0000       0.0000       0.0000       0.0000     
     23     (1,9,6)               31.475       0.0000      -0.24837      0.0000       0.0000       0.0000       0.0000       0.0000       0.0000       0.0000      -31.227       0.0000       0.0000     
     24     (1,12,7)              0.0000      -32.598      -2.55035E-02  0.0000       0.0000       0.0000       0.0000       0.0000       0.0000       32.624       0.0000       0.0000       0.0000     
     25     (1,13,7)              32.598      -32.570      -2.80498E-02  0.0000       0.0000       0.0000       0.0000       0.0000       0.0000       0.0000       0.0000       0.0000       0.0000     
     26     (1,14,9)              0.0000      -147.31      -2.6922       0.0000       0.0000       0.0000       150.00       0.0000       0.0000       0.0000       0.0000       0.0000       0.0000     
     27     (1,13,8)              147.31      -144.63      -2.6825       0.0000       0.0000       0.0000       0.0000       0.0000       0.0000       0.0000       0.0000       0.0000       0.0000     
     28     (1,13,7)              144.63      -141.95      -2.6727       0.0000       0.0000       0.0000       0.0000       0.0000       0.0000       0.0000       0.0000       0.0000       0.0000     
     29     (1,13,6)              174.52       0.0000       1.3842       0.0000       0.0000       0.0000       0.0000      -1.96252E-09  0.0000       0.0000      -175.91       0.0000       0.0000     
     30     (1,13,2)              0.0000      -189.31       2.9350       0.0000       0.0000       0.0000       0.0000       0.0000       0.0000       186.38       0.0000       0.0000       0.0000     
     31     (1,13,1)              189.31       0.0000       1.3232       0.0000       0.0000       0.0000       0.0000      -196.38       0.0000       5.7435       0.0000       0.0000       0.0000     
 --------------------------------------------------------------------------------------------------------------------------------------------------------------------------------------------------------



 LAK-1 PACKAGE - SUMMARY OF FLOWS FOR EACH CONTROL VOLUME   PERIOD      3   STEP       15
 -----------------------------------------------------------------------------------------------------------------------------------------------------------------------------------
                                                                                                                                                                          PERCENT   
   NUMBER       GWF        RAINFALL   EVAPORATION     RUNOFF     EXT INFLOW   WITHDRAWAL  EXT OUTFLOW    STORAGE      CONSTANT     FROM MVR      TO MVR      IN - OUT    DIFFERENCE 
 -----------------------------------------------------------------------------------------------------------------------------------------------------------------------------------
     1      -4.1087       5.0000      -1.0000       1.5000       0.0000       0.0000       0.0000       5.41686E-03  0.0000       31.227      -32.624      -5.86270E-09 -1.55375E-08
     2       7.2750       3.6000      -3.3000       3.0000       0.0000      -0.12000     -1.07063E-07  1.38396E-02  0.0000       175.91      -186.38       1.90453E-07  1.00346E-07
 -----------------------------------------------------------------------------------------------------------------------------------------------------------------------------------



 WATER MOVER PACKAGE (MVR) FLOW RATES   PERIOD      3   STEP       15
 --------------------------------------------------------------------------------------------------------------------------
                                               PROVIDER  AVAILABLE   PROVIDED                                     RECEIVER 
   NUMBER           PROVIDER LOCATION             ID        RATE       RATE            RECEIVER LOCATION             ID    
 --------------------------------------------------------------------------------------------------------------------------
     1                  E13/SFR-1                 23      31.2       31.2                  E13/LAK-1                 1     
     2                  E13/LAK-1                 1       32.6       32.6                  E13/SFR-1                 24    
     3                  E13/SFR-1                 29      176.       176.                  E13/LAK-1                 2     
     4                  E13/LAK-1                 2       186.       186.                  E13/SFR-1                 30    
     5                  E13/UZF-1                 1       0.00       0.00                  E13/SFR-1                 1     
     6                  E13/UZF-1                 2       0.00       0.00                  E13/SFR-1                 2     
     7                  E13/UZF-1                 3       0.00       0.00                  E13/SFR-1                 2     
     8                  E13/UZF-1                 4       0.00       0.00                  E13/SFR-1                 2     
     9                  E13/UZF-1                 5       0.00       0.00                  E13/SFR-1                 3     
     10                 E13/UZF-1                 6       0.00       0.00                  E13/SFR-1                 11    
     11                 E13/UZF-1                 7       0.00       0.00                  E13/SFR-1                 12    
     12                 E13/UZF-1                 8       0.00       0.00                  E13/SFR-1                 12    
     13                 E13/UZF-1                 9       0.00       0.00                  E13/SFR-1                 2     
     14                 E13/UZF-1                 10      0.00       0.00                  E13/SFR-1                 3     
     15                 E13/UZF-1                 11      0.00       0.00                  E13/SFR-1                 4     
     16                 E13/UZF-1                 12      0.00       0.00                  E13/SFR-1                 10    
     17                 E13/UZF-1                 13      0.00       0.00                  E13/SFR-1                 11    
     18                 E13/UZF-1                 14      0.00       0.00                  E13/SFR-1                 12    
     19                 E13/UZF-1                 15      0.00       0.00                  E13/SFR-1                 13    
     20                 E13/UZF-1                 16      0.00       0.00                  E13/LAK-1                 2     
     21                 E13/UZF-1                 17      0.00       0.00                  E13/LAK-1                 2     
     22                 E13/UZF-1                 18      0.00       0.00                  E13/SFR-1                 3     
     23                 E13/UZF-1                 19      0.00       0.00                  E13/SFR-1                 4     
     24                 E13/UZF-1                 20      0.00       0.00                  E13/SFR-1                 5     
     25                 E13/UZF-1                 21      0.00       0.00                  E13/SFR-1                 6     
     26                 E13/UZF-1                 22      0.00       0.00                  E13/SFR-1                 6     
     27                 E13/UZF-1                 23      0.00       0.00                  E13/SFR-1                 13    
     28                 E13/UZF-1                 24      0.00       0.00                  E13/SFR-1                 17    
     29                 E13/UZF-1                 25      0.00       0.00                  E13/LAK-1                 2     
     30                 E13/UZF-1                 26      0.00       0.00                  E13/LAK-1                 2     
     31                 E13/UZF-1                 27      0.00       0.00                  E13/LAK-1                 2     
     32                 E13/UZF-1                 28      0.00       0.00                  E13/LAK-1                 2     
     33                 E13/UZF-1                 29      0.00       0.00                  E13/SFR-1                 5     
     34                 E13/UZF-1                 30      0.00       0.00                  E13/SFR-1                 6     
     35                 E13/UZF-1                 31      0.00       0.00                  E13/SFR-1                 6     
     36                 E13/UZF-1                 32      0.00       0.00                  E13/SFR-1                 14    
     37                 E13/UZF-1                 33      0.00       0.00                  E13/SFR-1                 17    
     38                 E13/UZF-1                 34      0.00       0.00                  E13/SFR-1                 16    
     39                 E13/UZF-1                 35      0.00       0.00                  E13/LAK-1                 2     
     40                 E13/UZF-1                 36      0.00       0.00                  E13/LAK-1                 2     
     41                 E13/UZF-1                 37      0.00       0.00                  E13/LAK-1                 2     
     42                 E13/UZF-1                 38      0.00       0.00                  E13/LAK-1                 2     
     43                 E13/UZF-1                 39      0.00       0.00                  E13/LAK-1                 2     
     44                 E13/UZF-1                 40      0.00       0.00                  E13/SFR-1                 7     
     45                 E13/UZF-1                 41      0.00       0.00                  E13/SFR-1                 7     
     46                 E13/UZF-1                 42      0.00       0.00                  E13/SFR-1                 19    
     47                 E13/UZF-1                 43      0.00       0.00                  E13/SFR-1                 17    
     48                 E13/UZF-1                 44      0.00       0.00                  E13/SFR-1                 16    
     49                 E13/UZF-1                 45      0.00       0.00                  E13/LAK-1                 2     
     50                 E13/UZF-1                 46      0.00       0.00                  E13/LAK-1                 2     
     51                 E13/UZF-1                 47      0.00       0.00                  E13/LAK-1                 2     
     52                 E13/UZF-1                 48      0.00       0.00                  E13/LAK-1                 2     
     53                 E13/UZF-1                 49      0.00       0.00                  E13/LAK-1                 2     
     54                 E13/UZF-1                 50      0.00       0.00                  E13/SFR-1                 8     
     55                 E13/UZF-1                 51      0.00       0.00                  E13/SFR-1                 20    
     56                 E13/UZF-1                 52      0.00       0.00                  E13/SFR-1                 20    
     57                 E13/UZF-1                 53      0.00       0.00                  E13/SFR-1                 20    
     58                 E13/UZF-1                 54      0.00       0.00                  E13/LAK-1                 2     
     59                 E13/UZF-1                 55      0.00       0.00                  E13/LAK-1                 2     
     60                 E13/UZF-1                 56      0.00       0.00                  E13/LAK-1                 2     
     61                 E13/UZF-1                 57      0.00       0.00                  E13/LAK-1                 2     
     62                 E13/UZF-1                 58      0.00       0.00                  E13/SFR-1                 9     
     63                 E13/UZF-1                 59      0.00       0.00                  E13/SFR-1                 21    
     64                 E13/UZF-1                 60      0.00       0.00                  E13/SFR-1                 21    
     65                 E13/UZF-1                 61      0.00       0.00                  E13/SFR-1                 21    
     66                 E13/UZF-1                 62      0.00       0.00                  E13/LAK-1                 2     
     67                 E13/UZF-1                 63      0.00       0.00                  E13/LAK-1                 2     
     68                 E13/UZF-1                 64      0.00       0.00                  E13/LAK-1                 2     
     69                 E13/UZF-1                 65      0.00       0.00                  E13/LAK-1                 2     
     70                 E13/UZF-1                 66      0.00       0.00                  E13/SFR-1                 23    
     71                 E13/UZF-1                 67      0.00       0.00                  E13/LAK-1                 1     
     72                 E13/UZF-1                 68      0.00       0.00                  E13/LAK-1                 1     
     73                 E13/UZF-1                 69      0.00       0.00                  E13/LAK-1                 1     
     74                 E13/UZF-1                 70      0.00       0.00                  E13/LAK-1                 2     
     75                 E13/UZF-1                 71      0.00       0.00                  E13/LAK-1                 2     
     76                 E13/UZF-1                 72      0.00       0.00                  E13/LAK-1                 2     
     77                 E13/UZF-1                 73      0.00       0.00                  E13/LAK-1                 2     
     78                 E13/UZF-1                 74      0.00       0.00                  E13/LAK-1                 1     
     79                 E13/UZF-1                 75      0.00       0.00                  E13/LAK-1                 1     
     80                 E13/UZF-1                 76      0.00       0.00                  E13/LAK-1                 1     
     81                 E13/UZF-1                 77      0.00       0.00                  E13/LAK-1                 2     
     82                 E13/UZF-1                 78      0.00       0.00                  E13/SFR-1                 9     
     83                 E13/UZF-1                 79      0.00       0.00                  E13/LAK-1                 1     
     84                 E13/UZF-1                 80      0.00       0.00                  E13/SFR-1                 31    
     85                 E13/UZF-1                 81      0.00       0.00                  E13/SFR-1                 30    
     86                 E13/UZF-1                 82      0.00       0.00                  E13/SFR-1                 9     
     87                 E13/UZF-1                 83      0.00       0.00                  E13/SFR-1                 24    
     88                 E13/UZF-1                 84      0.00       0.00                  E13/LAK-1                 1     
     89                 E13/UZF-1                 85      0.00       0.00                  E13/LAK-1                 1     
     90                 E13/UZF-1                 86      5.74       5.74                  E13/SFR-1                 31    
     91                 E13/UZF-1                 87      0.00       0.00                  E13/SFR-1                 30    
     92                 E13/UZF-1                 88      0.00       0.00                  E13/SFR-1                 29    
     93                 E13/UZF-1                 89      0.00       0.00                  E13/SFR-1                 28    
     94                 E13/UZF-1                 90      0.00       0.00                  E13/SFR-1                 27    
     95                 E13/UZF-1                 91      0.00       0.00                  E13/SFR-1                 26    
     96                 E13/UZF-1                 92      0.00       0.00                  E13/SFR-1                 30    
     97                 E13/UZF-1                 93      0.00       0.00                  E13/LAK-1                 2     
     98                 E13/UZF-1                 94      0.00       0.00                  E13/SFR-1                 28    
     99                 E13/UZF-1                 95      0.00       0.00                  E13/SFR-1                 27    
    100                 E13/UZF-1                 96      0.00       0.00                  E13/SFR-1                 26    
    101                 E13/UZF-1                 97      0.00       0.00                  E13/LAK-1                 2     
    102                 E13/UZF-1                 98      0.00       0.00                  E13/LAK-1                 2     
    103                 E13/UZF-1                 99      0.00       0.00                  E13/LAK-1                 2     
    104                 E13/UZF-1                100      0.00       0.00                  E13/LAK-1                 2     
    105                 E13/WEL-1                 1       0.850      0.850                 E13/UZF-1                 38    
    106                 E13/WEL-1                 2       0.850      0.850                 E13/UZF-1                 39    
    107                 E13/WEL-1                 3       0.850      0.850                 E13/UZF-1                 48    
    108                 E13/WEL-1                 4       0.850      0.850                 E13/UZF-1                 49    
    109                 E13/WEL-1                 5       0.850      0.850                 E13/UZF-1                 56    
    110                 E13/WEL-1                 6       0.850      0.850                 E13/UZF-1                 57    
    111                 E13/WEL-1                 7       0.850      0.850                 E13/UZF-1                 64    
    112                 E13/WEL-1                 8       0.850      0.850                 E13/UZF-1                 65    
    113                 E13/WEL-1                 9       0.850      0.850                 E13/UZF-1                 72    
    114                 E13/WEL-1                 10      0.850      0.850                 E13/UZF-1                 73    
 --------------------------------------------------------------------------------------------------------------------------



 SFR PACKAGE (SFR-1) STAGES FOR EACH CONTROL VOLUME   PERIOD      3   STEP       15
 ------------------------------------------------------------------------------------------------------------------------------------------------------
                                                                                                                               STREAMBED    STREAMBED  
 NAME                                       NUMBER   CELLID                  STAGE        DEPTH        WIDTH       GWF HEAD   CONDUCTANCE    GRADIENT  
 ------------------------------------------------------------------------------------------------------------------------------------------------------
 ALLREACHES                                   1      (1,1,1)               1094.3       1.2349       12.000       1019.4       5.40000E-02  1.4116     
 ALLREACHES                                   2      (1,2,2)               1089.3       1.2262       12.000       1019.7       8.40000E-02  1.4087     
 ALLREACHES                                   3      (1,3,3)               1083.6       1.2163       12.000       1019.4       7.20000E-02  1.4054     
 ALLREACHES                                   4      (1,3,4)               1078.6       1.2075       12.000       1019.3       6.66000E-02  1.4025     
 ALLREACHES                                   5      (1,4,5)               1072.8       0.84113      12.000       1019.2       7.80000E-02  1.2804     
 ALLREACHES                                   6      (1,5,6)               1067.3       0.83133      12.000       1019.0       6.00000E-02  1.2771     
 ALLREACHES                                   7      (1,6,6)               1062.6       0.82276      12.000       1018.8       6.00000E-02  1.2743     
 ALLREACHES                                   8      (1,7,6)               1057.9       0.81415      12.000       1018.7       6.00000E-02  1.2714     
 ALLREACHES                                   9      (1,8,6)               1053.2       0.80551      12.000       1018.7       6.00000E-02  1.2685     
 ALLREACHES                                   10     (1,3,5)               1074.6       0.93630      9.6364       1018.4       7.22727E-03  1.4681     
 ALLREACHES                                   11     (1,3,6)               1071.9       0.98022      8.9091       1018.5       6.68182E-03  1.4901     
 ALLREACHES                                   12     (1,3,7)               1069.3       1.0277       8.2182       1018.5       5.54727E-03  1.5139     
 ALLREACHES                                   13     (1,4,8)               1066.5       1.0884       7.4545       1018.5       6.70909E-03  1.5442     
 ALLREACHES                                   14     (1,5,8)               1063.6       1.1639       6.6545       1018.5       4.99091E-03  1.5819     
 ALLREACHES                                   15     (1,6,8)               1061.8       1.2200       6.1455       1019.1       1.84364E-03  1.6100     
 ALLREACHES                                   16     (1,5,10)              1078.4       0.63679      10.000       1018.7       2.50000E-02  1.2123     
 ALLREACHES                                   17     (1,5,9)               1071.5       0.63155      10.000       1019.0       5.00000E-02  1.2105     
 ALLREACHES                                   18     (1,6,8)               1063.8       0.62558      10.000       1019.1       3.50000E-02  1.2085     
 ALLREACHES                                   19     (1,6,8)               1060.0       1.2846       10.000       1019.1       4.00000E-02  1.4282     
 ALLREACHES                                   20     (1,7,7)               1056.9       1.2770       10.000       1018.8       5.00000E-02  1.4257     
 ALLREACHES                                   21     (1,8,7)               1054.1       1.2697       10.000       1018.6       3.50000E-02  1.4232     
 ALLREACHES                                   22     (1,8,6)               1052.1       1.2646       10.000       1018.7       2.50000E-02  1.4215     
 ALLREACHES                                   23     (1,9,6)               1046.6       1.1396       12.000       1018.2       6.00000E-02  1.3799     
 ALLREACHES                                   24     (1,12,7)              1037.7       1.2506       12.000       1018.8       6.00000E-03  1.4169     
 ALLREACHES                                   25     (1,13,7)              1030.2       1.2500       12.000       1021.5       6.60000E-03  1.4167     
 ALLREACHES                                   26     (1,14,9)              1034.8       1.4870       60.000       1026.3       0.60000      1.4957     
 ALLREACHES                                   27     (1,13,8)              1031.5       1.4708       60.000       1023.4       0.60000      1.4903     
 ALLREACHES                                   28     (1,13,7)              1028.1       1.4546       60.000       1021.5       0.60000      1.4849     
 ALLREACHES                                   29     (1,13,6)              1013.9       0.90773      60.000       1016.2       0.60000     -0.76898    
 ALLREACHES                                   30     (1,13,2)              998.29       1.4171       60.000       1003.2       0.60000     -1.6306     
 ALLREACHES                                   31     (1,13,1)              993.33       1.4524       60.000       997.00       0.36000     -1.2252     
 ------------------------------------------------------------------------------------------------------------------------------------------------------



 LAK PACKAGE (LAK-1) STAGES FOR EACH CONTROL VOLUME   PERIOD      3   STEP       15
 --------------------------------------------------------------
   NUMBER      STAGE     SURFACE AREA WETTED AREA     VOLUME   
 --------------------------------------------------------------
     1       1041.3       1.00000E+08  1.01383E+08  4.27513E+09
     2       1001.4       3.00000E+08  3.01391E+08  5.29812E+09
 --------------------------------------------------------------



 HEAD WILL BE SAVED ON UNIT 1026 AT END OF TIME STEP   15, STRESS PERIOD    3


  SFR-1 BUDGET FOR ENTIRE MODEL AT END OF TIME STEP   15, STRESS PERIOD   3
  ------------------------------------------------------------------------------

     CUMULATIVE SFR-1      L**3       RATES FOR THIS TIME STEP      L**3/T
     ------------------                 ------------------------

           IN:                                      IN:
           ---                                      ---
                 GWF =    43773789.2105                   GWF =           5.6424
            RAINFALL =           0.0000              RAINFALL =           0.0000
         EVAPORATION =           0.0000           EVAPORATION =           0.0000
              RUNOFF =           0.0000                RUNOFF =           0.0000
          EXT-INFLOW =  1458540000.0000            EXT-INFLOW =         185.0000
         EXT-OUTFLOW =           0.0000           EXT-OUTFLOW =           0.0000
             STORAGE =           0.0000               STORAGE =           0.0000
            FROM-MVR =  1773110119.5981              FROM-MVR =         224.7430
              TO-MVR =           0.0000                TO-MVR =           0.0000

            TOTAL IN =  3275423908.8086              TOTAL IN =         415.3854

          OUT:                                     OUT:
          ----                                     ----
                 GWF =    93614044.6311                   GWF =          11.8739
            RAINFALL =           0.0000              RAINFALL =           0.0000
         EVAPORATION =           0.0000           EVAPORATION =           0.0000
              RUNOFF =           0.0000                RUNOFF =           0.0000
          EXT-INFLOW =           0.0000            EXT-INFLOW =           0.0000
         EXT-OUTFLOW =  1548768066.1041           EXT-OUTFLOW =         196.3775
             STORAGE =           0.0000               STORAGE =           0.0000
            FROM-MVR =           0.0000              FROM-MVR =           0.0000
              TO-MVR =  1633041798.0734                TO-MVR =         207.1340

           TOTAL OUT =  3275423908.8086             TOTAL OUT =         415.3854

            IN - OUT =       4.7684E-07              IN - OUT =           0.0000

 PERCENT DISCREPANCY =           0.00     PERCENT DISCREPANCY =           0.00



  LAK-1 BUDGET FOR ENTIRE MODEL AT END OF TIME STEP   15, STRESS PERIOD   3
  ------------------------------------------------------------------------------

     CUMULATIVE LAK-1      L**3       RATES FOR THIS TIME STEP      L**3/T
     ------------------                 ------------------------

           IN:                                      IN:
           ---                                      ---
                 GWF =    57553819.8889                   GWF =           7.2750
            RAINFALL =    67802400.0000              RAINFALL =           8.6000
         EVAPORATION =           0.0000           EVAPORATION =           0.0000
              RUNOFF =    35478000.0000                RUNOFF =           4.5000
          EXT-INFLOW =           0.0000            EXT-INFLOW =           0.0000
          WITHDRAWAL =           0.0000            WITHDRAWAL =           0.0000
         EXT-OUTFLOW =           0.0000           EXT-OUTFLOW =           0.0000
             STORAGE =       34033.5437               STORAGE =       1.9256E-02
            CONSTANT =           0.0000              CONSTANT =           0.0000
            FROM-MVR =  1633041798.0734              FROM-MVR =         207.1340
              TO-MVR =           0.0000                TO-MVR =           0.0000

            TOTAL IN =  1793910051.5059              TOTAL IN =         227.5282

          OUT:                                     OUT:
          ----                                     ----
                 GWF =    32329489.5356                   GWF =           4.1087
            RAINFALL =           0.0000              RAINFALL =           0.0000
         EVAPORATION =    33901200.0000           EVAPORATION =           4.3000
              RUNOFF =           0.0000                RUNOFF =           0.0000
          EXT-INFLOW =           0.0000            EXT-INFLOW =           0.0000
          WITHDRAWAL =      946080.0000            WITHDRAWAL =           0.1200
         EXT-OUTFLOW =           0.6093           EXT-OUTFLOW =       1.0706E-07
             STORAGE =          64.9850               STORAGE =           0.0000
            CONSTANT =           0.0000              CONSTANT =           0.0000
            FROM-MVR =           0.0000              FROM-MVR =           0.0000
              TO-MVR =  1726733214.2138                TO-MVR =         218.9995

           TOTAL OUT =  1793910049.3436             TOTAL OUT =         227.5282

            IN - OUT =           2.1623              IN - OUT =       1.8459E-07

 PERCENT DISCREPANCY =           0.00     PERCENT DISCREPANCY =           0.00



  UZF-1 BUDGET FOR ENTIRE MODEL AT END OF TIME STEP   15, STRESS PERIOD   3
  ------------------------------------------------------------------------------

     CUMULATIVE UZF-1      L**3       RATES FOR THIS TIME STEP      L**3/T
     ------------------                 ------------------------

           IN:                                      IN:
           ---                                      ---
                 GWF =           0.0000                   GWF =           0.0000
        INFILTRATION =  1011931635.6000          INFILTRATION =          76.5000
             REJ-INF =           0.0000               REJ-INF =           0.0000
                UZET =           0.0000                  UZET =           0.0000
             STORAGE =     1248437.8420               STORAGE =       7.7333E-02
            FROM-MVR =    22338000.0000              FROM-MVR =           8.5000
      REJ-INF-TO-MVR =           0.0000        REJ-INF-TO-MVR =           0.0000

            TOTAL IN =  1035518073.4420              TOTAL IN =          85.0773

          OUT:                                     OUT:
          ----                                     ----
                 GWF =    10802690.4788                   GWF =           0.4481
        INFILTRATION =           0.0000          INFILTRATION =           0.0000
             REJ-INF =           2.6747               REJ-INF =           0.0000
                UZET =   127881259.0537                  UZET =          24.3287
             STORAGE =   893527178.8178               STORAGE =          60.0505
            FROM-MVR =           0.0000              FROM-MVR =           0.0000
      REJ-INF-TO-MVR =     3306942.4071        REJ-INF-TO-MVR =           0.2500

           TOTAL OUT =  1035518073.4321             TOTAL OUT =          85.0773

            IN - OUT =       9.9144E-03              IN - OUT =      -4.0682E-08

 PERCENT DISCREPANCY =           0.00     PERCENT DISCREPANCY =          -0.00



  WATER MOVER BUDGET FOR ENTIRE MODEL AT END OF TIME STEP   15, STRESS PERIOD   3
  ------------------------------------------------------------------------------

     CUMULATIVE WATER MOVER      L**3       RATES FOR THIS TIME STEP      L**3/T
     ------------------                 ------------------------

           IN:                                      IN:
           ---                                      ---
               UZF-1 =    46376905.3843                 UZF-1 =           5.7435
               SFR-1 =  1633041798.0734                 SFR-1 =         207.1340
               LAK-1 =  1726733214.2138                 LAK-1 =         218.9995
               WEL-1 =    22338000.0000                 WEL-1 =           8.5000

            TOTAL IN =  3428489917.6714              TOTAL IN =         440.3770

          OUT:                                     OUT:
          ----                                     ----
               UZF-1 =    22338000.0000                 UZF-1 =           8.5000
               SFR-1 =  1773110119.5981                 SFR-1 =         224.7430
               LAK-1 =  1633041798.0734                 LAK-1 =         207.1340
               WEL-1 =           0.0000                 WEL-1 =           0.0000

           TOTAL OUT =  3428489917.6714             TOTAL OUT =         440.3770

            IN - OUT =           0.0000              IN - OUT =           0.0000

 PERCENT DISCREPANCY =           0.00     PERCENT DISCREPANCY =           0.00



  VOLUME BUDGET FOR ENTIRE MODEL AT END OF TIME STEP   15, STRESS PERIOD   3
  ---------------------------------------------------------------------------------------------------

     CUMULATIVE VOLUME      L**3       RATES FOR THIS TIME STEP      L**3/T          PACKAGE NAME    
     ------------------                 ------------------------                     ----------------

           IN:                                      IN:
           ---                                      ---
              STO-SS =      137116.0836                STO-SS =       4.1975E-02     STORAGE                          
              STO-SY =    33299270.6002                STO-SY =          10.5916     STORAGE                          
                 WEL =           0.0000                   WEL =           0.0000     WEL-1                            
          WEL-TO-MVR =           0.0000            WEL-TO-MVR =           0.0000     WEL-1                            
                 GHB =     5605095.7971                   GHB =           0.7113     GHB_0                            
                 SFR =    93614044.6311                   SFR =          11.8739     SFR-1                            
                 LAK =    32329489.5356                   LAK =           4.1087     LAK-1                            
           UZF-GWRCH =    10802690.4788             UZF-GWRCH =           0.4481     UZF-1                            
             UZF-GWD =           0.0000               UZF-GWD =           0.0000     UZF-1                            
      UZF-GWD TO-MVR =           0.0000        UZF-GWD TO-MVR =           0.0000     UZF-1                            
            UZF-GWET =           0.0000              UZF-GWET =           0.0000     UZF-1                            

            TOTAL IN =   175787707.1265              TOTAL IN =          27.7756

          OUT:                                     OUT:
          ----                                     ----
              STO-SS =        1336.8077                STO-SS =       1.1779E-07     STORAGE                          
              STO-SY =     1873623.7459                STO-SY =       5.9678E-04     STORAGE                          
                 WEL =           0.0000                   WEL =           0.0000     WEL-1                            
          WEL-TO-MVR =    22338000.0000            WEL-TO-MVR =           8.5000     WEL-1                            
                 GHB =     2697217.6074                   GHB =           0.3421     GHB_0                            
                 SFR =    43773860.2007                   SFR =           5.6424     SFR-1                            
                 LAK =    57553819.8889                   LAK =           7.2750     LAK-1                            
           UZF-GWRCH =           0.0000             UZF-GWRCH =           0.0000     UZF-1                            
             UZF-GWD =          21.1924               UZF-GWD =           0.0000     UZF-1                            
      UZF-GWD TO-MVR =    43069962.9771        UZF-GWD TO-MVR =           5.4935     UZF-1                            
            UZF-GWET =     4478633.7303              UZF-GWET =           0.5219     UZF-1                            

           TOTAL OUT =   175786476.1505             TOTAL OUT =          27.7755

            IN - OUT =        1230.9761              IN - OUT =       5.9895E-05

 PERCENT DISCREPANCY =           0.00     PERCENT DISCREPANCY =           0.00




         TIME SUMMARY AT END OF TIME STEP   15 IN STRESS PERIOD    3
                    SECONDS     MINUTES      HOURS       DAYS        YEARS
                    -----------------------------------------------------------
   TIME STEP LENGTH 1.75200E+05  2920.0      48.667      2.0278     5.55175E-03
 STRESS PERIOD TIME 2.62800E+06  43800.      730.00      30.417     8.32763E-02
         TOTAL TIME 7.88400E+06 1.31400E+05  2190.0      91.250     0.24983    


end timestep


start timestep kper="4" kstp="1" mode="normal"


 OUTPUT CONTROL FOR STRESS PERIOD 4 IS REPEATED USING SETTINGS FROM A PREVIOUS STRESS PERIOD.


 STRESS PERIOD 4 IS TRANSIENT


 REUSING MVRS FROM LAST STRESS PERIOD

 REUSING SFRS FROM LAST STRESS PERIOD

 REUSING LAKS FROM LAST STRESS PERIOD

end timestep


start timestep kper="4" kstp="2" mode="normal"


end timestep


start timestep kper="4" kstp="3" mode="normal"


end timestep


start timestep kper="4" kstp="4" mode="normal"


end timestep


start timestep kper="4" kstp="5" mode="normal"


end timestep


start timestep kper="4" kstp="6" mode="normal"


end timestep


start timestep kper="4" kstp="7" mode="normal"


end timestep


start timestep kper="4" kstp="8" mode="normal"


end timestep


start timestep kper="4" kstp="9" mode="normal"


end timestep


start timestep kper="4" kstp="10" mode="normal"


end timestep


start timestep kper="4" kstp="11" mode="normal"


end timestep


start timestep kper="4" kstp="12" mode="normal"


end timestep


start timestep kper="4" kstp="13" mode="normal"


end timestep


start timestep kper="4" kstp="14" mode="normal"


end timestep


start timestep kper="4" kstp="15" mode="normal"

 UBDSV1 SAVING           STO-SS ON UNIT   1025 AT TIME STEP     15, STRESS PERIOD      4
 UBDSV1 SAVING           STO-SY ON UNIT   1025 AT TIME STEP     15, STRESS PERIOD      4
 UBDSV1 SAVING     FLOW-JA-FACE ON UNIT   1025 AT TIME STEP     15, STRESS PERIOD      4
 UBDSV06 SAVING       DATA-SPDIS IN MODEL E13              PACKAGE NPF             CONNECTED TO MODEL E13              PACKAGE NPF              ON UNIT   1025 AT TIME STEP     15, STRESS PERIOD      4
 UBDSV06 SAVING              WEL IN MODEL E13              PACKAGE E13             CONNECTED TO MODEL E13              PACKAGE WEL-1            ON UNIT   1025 AT TIME STEP     15, STRESS PERIOD      4
 UBDSV06 SAVING       WEL-TO-MVR IN MODEL E13              PACKAGE E13             CONNECTED TO MODEL E13              PACKAGE WEL-1            ON UNIT   1025 AT TIME STEP     15, STRESS PERIOD      4
 UBDSV06 SAVING              GHB IN MODEL E13              PACKAGE E13             CONNECTED TO MODEL E13              PACKAGE GHB_0            ON UNIT   1025 AT TIME STEP     15, STRESS PERIOD      4
 UBDSV06 SAVING              SFR IN MODEL E13              PACKAGE E13             CONNECTED TO MODEL E13              PACKAGE SFR-1            ON UNIT   1025 AT TIME STEP     15, STRESS PERIOD      4
 UBDSV06 SAVING              LAK IN MODEL E13              PACKAGE E13             CONNECTED TO MODEL E13              PACKAGE LAK-1            ON UNIT   1025 AT TIME STEP     15, STRESS PERIOD      4
 UBDSV06 SAVING        UZF-GWRCH IN MODEL E13              PACKAGE E13             CONNECTED TO MODEL E13              PACKAGE UZF-1            ON UNIT   1025 AT TIME STEP     15, STRESS PERIOD      4
 UBDSV06 SAVING          UZF-GWD IN MODEL E13              PACKAGE E13             CONNECTED TO MODEL E13              PACKAGE UZF-1            ON UNIT   1025 AT TIME STEP     15, STRESS PERIOD      4
 UBDSV06 SAVING   UZF-GWD TO-MVR IN MODEL E13              PACKAGE E13             CONNECTED TO MODEL E13              PACKAGE UZF-1            ON UNIT   1025 AT TIME STEP     15, STRESS PERIOD      4
 UBDSV06 SAVING         UZF-GWET IN MODEL E13              PACKAGE E13             CONNECTED TO MODEL E13              PACKAGE UZF-1            ON UNIT   1025 AT TIME STEP     15, STRESS PERIOD      4
 UBDSV06 SAVING     FLOW-JA-FACE IN MODEL E13              PACKAGE SFR-1           CONNECTED TO MODEL E13              PACKAGE SFR-1            ON UNIT   1017 AT TIME STEP     15, STRESS PERIOD      4
 UBDSV06 SAVING              GWF IN MODEL E13              PACKAGE SFR-1           CONNECTED TO MODEL E13              PACKAGE E13              ON UNIT   1017 AT TIME STEP     15, STRESS PERIOD      4
 UBDSV06 SAVING         RAINFALL IN MODEL E13              PACKAGE SFR-1           CONNECTED TO MODEL E13              PACKAGE SFR-1            ON UNIT   1017 AT TIME STEP     15, STRESS PERIOD      4
 UBDSV06 SAVING      EVAPORATION IN MODEL E13              PACKAGE SFR-1           CONNECTED TO MODEL E13              PACKAGE SFR-1            ON UNIT   1017 AT TIME STEP     15, STRESS PERIOD      4
 UBDSV06 SAVING           RUNOFF IN MODEL E13              PACKAGE SFR-1           CONNECTED TO MODEL E13              PACKAGE SFR-1            ON UNIT   1017 AT TIME STEP     15, STRESS PERIOD      4
 UBDSV06 SAVING       EXT-INFLOW IN MODEL E13              PACKAGE SFR-1           CONNECTED TO MODEL E13              PACKAGE SFR-1            ON UNIT   1017 AT TIME STEP     15, STRESS PERIOD      4
 UBDSV06 SAVING      EXT-OUTFLOW IN MODEL E13              PACKAGE SFR-1           CONNECTED TO MODEL E13              PACKAGE SFR-1            ON UNIT   1017 AT TIME STEP     15, STRESS PERIOD      4
 UBDSV06 SAVING          STORAGE IN MODEL E13              PACKAGE SFR-1           CONNECTED TO MODEL E13              PACKAGE SFR-1            ON UNIT   1017 AT TIME STEP     15, STRESS PERIOD      4
 UBDSV06 SAVING         FROM-MVR IN MODEL E13              PACKAGE SFR-1           CONNECTED TO MODEL E13              PACKAGE SFR-1            ON UNIT   1017 AT TIME STEP     15, STRESS PERIOD      4
 UBDSV06 SAVING           TO-MVR IN MODEL E13              PACKAGE SFR-1           CONNECTED TO MODEL E13              PACKAGE SFR-1            ON UNIT   1017 AT TIME STEP     15, STRESS PERIOD      4
 UBDSV06 SAVING              GWF IN MODEL E13              PACKAGE LAK-1           CONNECTED TO MODEL E13              PACKAGE E13              ON UNIT   1019 AT TIME STEP     15, STRESS PERIOD      4
 UBDSV06 SAVING         RAINFALL IN MODEL E13              PACKAGE LAK-1           CONNECTED TO MODEL E13              PACKAGE LAK-1            ON UNIT   1019 AT TIME STEP     15, STRESS PERIOD      4
 UBDSV06 SAVING      EVAPORATION IN MODEL E13              PACKAGE LAK-1           CONNECTED TO MODEL E13              PACKAGE LAK-1            ON UNIT   1019 AT TIME STEP     15, STRESS PERIOD      4
 UBDSV06 SAVING           RUNOFF IN MODEL E13              PACKAGE LAK-1           CONNECTED TO MODEL E13              PACKAGE LAK-1            ON UNIT   1019 AT TIME STEP     15, STRESS PERIOD      4
 UBDSV06 SAVING       EXT-INFLOW IN MODEL E13              PACKAGE LAK-1           CONNECTED TO MODEL E13              PACKAGE LAK-1            ON UNIT   1019 AT TIME STEP     15, STRESS PERIOD      4
 UBDSV06 SAVING       WITHDRAWAL IN MODEL E13              PACKAGE LAK-1           CONNECTED TO MODEL E13              PACKAGE LAK-1            ON UNIT   1019 AT TIME STEP     15, STRESS PERIOD      4
 UBDSV06 SAVING      EXT-OUTFLOW IN MODEL E13              PACKAGE LAK-1           CONNECTED TO MODEL E13              PACKAGE LAK-1            ON UNIT   1019 AT TIME STEP     15, STRESS PERIOD      4
 UBDSV06 SAVING          STORAGE IN MODEL E13              PACKAGE LAK-1           CONNECTED TO MODEL E13              PACKAGE LAK-1            ON UNIT   1019 AT TIME STEP     15, STRESS PERIOD      4
 UBDSV06 SAVING         CONSTANT IN MODEL E13              PACKAGE LAK-1           CONNECTED TO MODEL E13              PACKAGE LAK-1            ON UNIT   1019 AT TIME STEP     15, STRESS PERIOD      4
 UBDSV06 SAVING         FROM-MVR IN MODEL E13              PACKAGE LAK-1           CONNECTED TO MODEL E13              PACKAGE LAK-1            ON UNIT   1019 AT TIME STEP     15, STRESS PERIOD      4
 UBDSV06 SAVING           TO-MVR IN MODEL E13              PACKAGE LAK-1           CONNECTED TO MODEL E13              PACKAGE LAK-1            ON UNIT   1019 AT TIME STEP     15, STRESS PERIOD      4
 UBDSV06 SAVING     FLOW-JA-FACE IN MODEL E13              PACKAGE UZF-1           CONNECTED TO MODEL E13              PACKAGE UZF-1            ON UNIT   1021 AT TIME STEP     15, STRESS PERIOD      4
 UBDSV06 SAVING              GWF IN MODEL E13              PACKAGE UZF-1           CONNECTED TO MODEL E13              PACKAGE E13              ON UNIT   1021 AT TIME STEP     15, STRESS PERIOD      4
 UBDSV06 SAVING     INFILTRATION IN MODEL E13              PACKAGE UZF-1           CONNECTED TO MODEL E13              PACKAGE UZF-1            ON UNIT   1021 AT TIME STEP     15, STRESS PERIOD      4
 UBDSV06 SAVING          REJ-INF IN MODEL E13              PACKAGE UZF-1           CONNECTED TO MODEL E13              PACKAGE UZF-1            ON UNIT   1021 AT TIME STEP     15, STRESS PERIOD      4
 UBDSV06 SAVING             UZET IN MODEL E13              PACKAGE UZF-1           CONNECTED TO MODEL E13              PACKAGE UZF-1            ON UNIT   1021 AT TIME STEP     15, STRESS PERIOD      4
 UBDSV06 SAVING          STORAGE IN MODEL E13              PACKAGE UZF-1           CONNECTED TO MODEL E13              PACKAGE UZF-1            ON UNIT   1021 AT TIME STEP     15, STRESS PERIOD      4
 UBDSV06 SAVING         FROM-MVR IN MODEL E13              PACKAGE UZF-1           CONNECTED TO MODEL E13              PACKAGE UZF-1            ON UNIT   1021 AT TIME STEP     15, STRESS PERIOD      4
 UBDSV06 SAVING   REJ-INF-TO-MVR IN MODEL E13              PACKAGE UZF-1           CONNECTED TO MODEL E13              PACKAGE UZF-1            ON UNIT   1021 AT TIME STEP     15, STRESS PERIOD      4
 UBDSV06 SAVING       MOVER-FLOW IN MODEL E13              PACKAGE UZF-1           CONNECTED TO MODEL E13              PACKAGE UZF-1            ON UNIT   1023 AT TIME STEP     15, STRESS PERIOD      4
 UBDSV06 SAVING       MOVER-FLOW IN MODEL E13              PACKAGE UZF-1           CONNECTED TO MODEL E13              PACKAGE SFR-1            ON UNIT   1023 AT TIME STEP     15, STRESS PERIOD      4
 UBDSV06 SAVING       MOVER-FLOW IN MODEL E13              PACKAGE UZF-1           CONNECTED TO MODEL E13              PACKAGE LAK-1            ON UNIT   1023 AT TIME STEP     15, STRESS PERIOD      4
 UBDSV06 SAVING       MOVER-FLOW IN MODEL E13              PACKAGE UZF-1           CONNECTED TO MODEL E13              PACKAGE WEL-1            ON UNIT   1023 AT TIME STEP     15, STRESS PERIOD      4
 UBDSV06 SAVING       MOVER-FLOW IN MODEL E13              PACKAGE SFR-1           CONNECTED TO MODEL E13              PACKAGE UZF-1            ON UNIT   1023 AT TIME STEP     15, STRESS PERIOD      4
 UBDSV06 SAVING       MOVER-FLOW IN MODEL E13              PACKAGE SFR-1           CONNECTED TO MODEL E13              PACKAGE SFR-1            ON UNIT   1023 AT TIME STEP     15, STRESS PERIOD      4
 UBDSV06 SAVING       MOVER-FLOW IN MODEL E13              PACKAGE SFR-1           CONNECTED TO MODEL E13              PACKAGE LAK-1            ON UNIT   1023 AT TIME STEP     15, STRESS PERIOD      4
 UBDSV06 SAVING       MOVER-FLOW IN MODEL E13              PACKAGE SFR-1           CONNECTED TO MODEL E13              PACKAGE WEL-1            ON UNIT   1023 AT TIME STEP     15, STRESS PERIOD      4
 UBDSV06 SAVING       MOVER-FLOW IN MODEL E13              PACKAGE LAK-1           CONNECTED TO MODEL E13              PACKAGE UZF-1            ON UNIT   1023 AT TIME STEP     15, STRESS PERIOD      4
 UBDSV06 SAVING       MOVER-FLOW IN MODEL E13              PACKAGE LAK-1           CONNECTED TO MODEL E13              PACKAGE SFR-1            ON UNIT   1023 AT TIME STEP     15, STRESS PERIOD      4
 UBDSV06 SAVING       MOVER-FLOW IN MODEL E13              PACKAGE LAK-1           CONNECTED TO MODEL E13              PACKAGE LAK-1            ON UNIT   1023 AT TIME STEP     15, STRESS PERIOD      4
 UBDSV06 SAVING       MOVER-FLOW IN MODEL E13              PACKAGE LAK-1           CONNECTED TO MODEL E13              PACKAGE WEL-1            ON UNIT   1023 AT TIME STEP     15, STRESS PERIOD      4
 UBDSV06 SAVING       MOVER-FLOW IN MODEL E13              PACKAGE WEL-1           CONNECTED TO MODEL E13              PACKAGE UZF-1            ON UNIT   1023 AT TIME STEP     15, STRESS PERIOD      4
 UBDSV06 SAVING       MOVER-FLOW IN MODEL E13              PACKAGE WEL-1           CONNECTED TO MODEL E13              PACKAGE SFR-1            ON UNIT   1023 AT TIME STEP     15, STRESS PERIOD      4
 UBDSV06 SAVING       MOVER-FLOW IN MODEL E13              PACKAGE WEL-1           CONNECTED TO MODEL E13              PACKAGE LAK-1            ON UNIT   1023 AT TIME STEP     15, STRESS PERIOD      4
 UBDSV06 SAVING       MOVER-FLOW IN MODEL E13              PACKAGE WEL-1           CONNECTED TO MODEL E13              PACKAGE WEL-1            ON UNIT   1023 AT TIME STEP     15, STRESS PERIOD      4

 WEL PACKAGE (WEL-1) FLOW RATES   PERIOD      4   STEP       15
 -----------------------------------------------
   NUMBER   CELLID                    RATE      
 -----------------------------------------------
     1      (1,6,4)               0.0000000     
     2      (1,6,5)               0.0000000     
     3      (1,7,4)               0.0000000     
     4      (1,7,5)               0.0000000     
     5      (1,8,4)               0.0000000     
     6      (1,8,5)               0.0000000     
     7      (1,9,4)               0.0000000     
     8      (1,9,5)               0.0000000     
     9      (1,10,4)              0.0000000     
     10     (1,10,5)              0.0000000     
 -----------------------------------------------




 WEL PACKAGE (WEL-1) FLOW RATES TO-MVR   PERIOD      4   STEP       15
 -----------------------------------------------
   NUMBER   CELLID                    RATE      
 -----------------------------------------------
     1      (1,6,4)              -0.85000000    
     2      (1,6,5)              -0.85000000    
     3      (1,7,4)              -0.85000000    
     4      (1,7,5)              -0.85000000    
     5      (1,8,4)              -0.85000000    
     6      (1,8,5)              -0.85000000    
     7      (1,9,4)              -0.85000000    
     8      (1,9,5)              -0.85000000    
     9      (1,10,4)             -0.85000000    
     10     (1,10,5)             -0.85000000    
 -----------------------------------------------




 SFR PACKAGE (SFR-1) FLOW RATES   PERIOD      4   STEP       15
 ----------------------------------------------------------------------------------------
   NUMBER   CELLID                    RATE       NAME                                    
 ----------------------------------------------------------------------------------------
     1      (1,1,1)               0.22868377     ALLREACHES                              
     2      (1,2,2)               0.35499870     ALLREACHES                              
     3      (1,3,3)               0.30357347     ALLREACHES                              
     4      (1,3,4)               0.28021936     ALLREACHES                              
     5      (1,4,5)               0.29960805     ALLREACHES                              
     6      (1,5,6)               0.22987955     ALLREACHES                              
     7      (1,6,6)               0.22936563     ALLREACHES                              
     8      (1,7,6)               0.22884928     ALLREACHES                              
     9      (1,8,6)               0.22833044     ALLREACHES                              
     10     (1,3,5)               2.12214188E-02 ALLREACHES                              
     11     (1,3,6)               1.99133007E-02 ALLREACHES                              
     12     (1,3,7)               1.67956407E-02 ALLREACHES                              
     13     (1,4,8)               2.07205450E-02 ALLREACHES                              
     14     (1,5,8)               1.57905563E-02 ALLREACHES                              
     15     (1,6,8)               5.93648362E-03 ALLREACHES                              
     16     (1,5,10)              9.09197693E-02 ALLREACHES                              
     17     (1,5,9)               0.18157734     ALLREACHES                              
     18     (1,6,8)               0.12689514     ALLREACHES                              
     19     (1,6,8)               0.17138468     ALLREACHES                              
     20     (1,7,7)               0.21384773     ALLREACHES                              
     21     (1,8,7)               0.14943953     ALLREACHES                              
     22     (1,8,6)               0.10661428     ALLREACHES                              
     23     (1,9,6)               0.24837387     ALLREACHES                              
     24     (1,12,7)              2.55025059E-02 ALLREACHES                              
     25     (1,13,7)              2.80486894E-02 ALLREACHES                              
     26     (1,14,9)              2.6922030      ALLREACHES                              
     27     (1,13,8)              2.6824902      ALLREACHES                              
     28     (1,13,7)              2.6727412      ALLREACHES                              
     29     (1,13,6)             -1.3812014      ALLREACHES                              
     30     (1,13,2)             -2.9539967      ALLREACHES                              
     31     (1,13,1)             -1.3228668      ALLREACHES                              
 ----------------------------------------------------------------------------------------




 LAK PACKAGE (LAK-1) FLOW RATES   PERIOD      4   STEP       15
 -----------------------------------------------
   NUMBER   CELLID                    RATE      
 -----------------------------------------------
     1      (1,9,7)               8.37815239E-03
     2      (1,10,6)              1.07729196E-02
     3      (2,10,7)              1.0222047     
     4      (1,9,8)               5.99775981E-03
     5      (1,10,9)              1.05171180E-04
     6      (2,10,8)              1.0039383     
     7      (1,11,6)              1.17929992E-02
     8      (1,12,7)              1.12407097E-02
     9      (2,11,7)              1.0256371     
     10     (1,11,9)              2.62784800E-03
     11     (1,12,8)              1.10010472E-02
     12     (2,11,8)              1.0037873     
     13     (1,10,3)             -3.63905669E-04
     14     (1,11,2)             -9.48507800E-04
     15     (2,11,3)             -0.59906617    
     16     (1,10,4)             -1.16425487E-03
     17     (2,11,4)             -0.62222110    
     18     (1,10,5)             -3.00219902E-03
     19     (1,11,6)             -4.00891179E-03
     20     (2,11,5)             -0.65182172    
     21     (1,12,2)             -3.56869878E-03
     22     (2,12,3)             -0.56840186    
     23     (2,12,4)             -0.60200012    
     24     (1,12,6)             -5.41877933E-03
     25     (2,12,5)             -0.63786756    
     26     (1,13,2)             -8.87460769E-04
     27     (2,13,3)             -0.55166251    
     28     (2,13,4)             -0.59097193    
     29     (1,13,6)             -5.79702210E-03
     30     (2,13,5)             -0.62879484    
     31     (1,14,2)             -3.34873211E-03
     32     (1,15,3)              0.0000000     
     33     (2,14,3)             -0.55585011    
     34     (1,15,4)              0.0000000     
     35     (2,14,4)             -0.58693122    
     36     (1,14,6)             -2.51175079E-03
     37     (1,15,5)              0.0000000     
     38     (2,14,5)             -0.61998234    
 -----------------------------------------------




 SFR-1 PACKAGE - SUMMARY OF FLOWS FOR EACH CONTROL VOLUME   PERIOD      4   STEP       15
 --------------------------------------------------------------------------------------------------------------------------------------------------------------------------------------------------------
                                                                                                                                                                                               PERCENT   
   NUMBER   CELLID                  INFLOW      OUTFLOW        GWF        RAINFALL   EVAPORATION     RUNOFF     EXT INFLOW  EXT OUTFLOW    STORAGE      FROM MVR      TO MVR      IN - OUT    DIFFERENCE 
 --------------------------------------------------------------------------------------------------------------------------------------------------------------------------------------------------------
     1      (1,1,1)               0.0000      -24.771      -0.22868      0.0000       0.0000       0.0000       25.000       0.0000       0.0000       0.0000       0.0000       0.0000       0.0000     
     2      (1,2,2)               24.771      -24.416      -0.35500      0.0000       0.0000       0.0000       0.0000       0.0000       0.0000       0.0000       0.0000       0.0000       0.0000     
     3      (1,3,3)               24.416      -24.113      -0.30357      0.0000       0.0000       0.0000       0.0000       0.0000       0.0000       0.0000       0.0000       0.0000       0.0000     
     4      (1,3,4)               24.113      -23.833      -0.28022      0.0000       0.0000       0.0000       0.0000       0.0000       0.0000       0.0000       0.0000       0.0000       0.0000     
     5      (1,4,5)               13.833      -13.533      -0.29961      0.0000       0.0000       0.0000       0.0000       0.0000       0.0000       0.0000       0.0000       0.0000       0.0000     
     6      (1,5,6)               13.533      -13.303      -0.22988      0.0000       0.0000       0.0000       0.0000       0.0000       0.0000       0.0000       0.0000       0.0000       0.0000     
     7      (1,6,6)               13.303      -13.074      -0.22937      0.0000       0.0000       0.0000       0.0000       0.0000       0.0000       0.0000       0.0000       0.0000       0.0000     
     8      (1,7,6)               13.074      -12.845      -0.22885      0.0000       0.0000       0.0000       0.0000       0.0000       0.0000       0.0000       0.0000       0.0000       0.0000     
     9      (1,8,6)               12.845      -12.616      -0.22833      0.0000       0.0000       0.0000       0.0000       0.0000       0.0000       0.0000       0.0000       0.0000       0.0000     
     10     (1,3,5)               10.000      -9.9788      -2.12214E-02  0.0000       0.0000       0.0000       0.0000       0.0000       0.0000       0.0000       0.0000       0.0000       0.0000     
     11     (1,3,6)               9.9788      -9.9589      -1.99133E-02  0.0000       0.0000       0.0000       0.0000       0.0000       0.0000       0.0000       0.0000       0.0000       0.0000     
     12     (1,3,7)               9.9589      -9.9421      -1.67956E-02  0.0000       0.0000       0.0000       0.0000       0.0000       0.0000       0.0000       0.0000       0.0000       0.0000     
     13     (1,4,8)               9.9421      -9.9213      -2.07205E-02  0.0000       0.0000       0.0000       0.0000       0.0000       0.0000       0.0000       0.0000       0.0000       0.0000     
     14     (1,5,8)               9.9213      -9.9056      -1.57906E-02  0.0000       0.0000       0.0000       0.0000       0.0000       0.0000       0.0000       0.0000       0.0000       0.0000     
     15     (1,6,8)               9.9056      -9.8996      -5.93648E-03  0.0000       0.0000       0.0000       0.0000       0.0000       0.0000       0.0000       0.0000       0.0000       0.0000     
     16     (1,5,10)              0.0000      -9.9091      -9.09198E-02  0.0000       0.0000       0.0000       10.000       0.0000       0.0000       0.0000       0.0000       0.0000       0.0000     
     17     (1,5,9)               9.9091      -9.7275      -0.18158      0.0000       0.0000       0.0000       0.0000       0.0000       0.0000       0.0000       0.0000       0.0000       0.0000     
     18     (1,6,8)               9.7275      -9.6006      -0.12690      0.0000       0.0000       0.0000       0.0000       0.0000       0.0000       0.0000       0.0000       0.0000       0.0000     
     19     (1,6,8)               19.500      -19.329      -0.17138      0.0000       0.0000       0.0000       0.0000       0.0000       0.0000       0.0000       0.0000       0.0000       0.0000     
     20     (1,7,7)               19.329      -19.115      -0.21385      0.0000       0.0000       0.0000       0.0000       0.0000       0.0000       0.0000       0.0000       0.0000       0.0000     
     21     (1,8,7)               19.115      -18.966      -0.14944      0.0000       0.0000       0.0000       0.0000       0.0000       0.0000       0.0000       0.0000       0.0000       0.0000     
     22     (1,8,6)               18.966      -18.859      -0.10661      0.0000       0.0000       0.0000       0.0000       0.0000       0.0000       0.0000       0.0000       0.0000       0.0000     
     23     (1,9,6)               31.475       0.0000      -0.24837      0.0000       0.0000       0.0000       0.0000       0.0000       0.0000       0.0000      -31.227       0.0000       0.0000     
     24     (1,12,7)              0.0000      -32.591      -2.55025E-02  0.0000       0.0000       0.0000       0.0000       0.0000       0.0000       32.616       0.0000       0.0000       0.0000     
     25     (1,13,7)              32.591      -32.563      -2.80487E-02  0.0000       0.0000       0.0000       0.0000       0.0000       0.0000       0.0000       0.0000       0.0000       0.0000     
     26     (1,14,9)              0.0000      -147.31      -2.6922       0.0000       0.0000       0.0000       150.00       0.0000       0.0000       0.0000       0.0000       0.0000       0.0000     
     27     (1,13,8)              147.31      -144.63      -2.6825       0.0000       0.0000       0.0000       0.0000       0.0000       0.0000       0.0000       0.0000       0.0000       0.0000     
     28     (1,13,7)              144.63      -141.95      -2.6727       0.0000       0.0000       0.0000       0.0000       0.0000       0.0000       0.0000       0.0000       0.0000       0.0000     
     29     (1,13,6)              174.52       0.0000       1.3812       0.0000       0.0000       0.0000       0.0000      -4.12197E-09  0.0000       0.0000      -175.90       0.0000       0.0000     
     30     (1,13,2)              0.0000      -189.30       2.9540       0.0000       0.0000       0.0000       0.0000       0.0000       0.0000       186.34       0.0000       0.0000       0.0000     
     31     (1,13,1)              189.30       0.0000       1.3229       0.0000       0.0000       0.0000       0.0000      -196.61       0.0000       5.9882       0.0000      -2.84217E-14 -1.44561E-14
 --------------------------------------------------------------------------------------------------------------------------------------------------------------------------------------------------------



 LAK-1 PACKAGE - SUMMARY OF FLOWS FOR EACH CONTROL VOLUME   PERIOD      4   STEP       15
 -----------------------------------------------------------------------------------------------------------------------------------------------------------------------------------
                                                                                                                                                                          PERCENT   
   NUMBER       GWF        RAINFALL   EVAPORATION     RUNOFF     EXT INFLOW   WITHDRAWAL  EXT OUTFLOW    STORAGE      CONSTANT     FROM MVR      TO MVR      IN - OUT    DIFFERENCE 
 -----------------------------------------------------------------------------------------------------------------------------------------------------------------------------------
     1      -4.1175       5.0000      -1.0000       1.5000       0.0000       0.0000       0.0000       6.92005E-03  0.0000       31.227      -32.616       1.02799E-08  2.72432E-08
     2       7.2466       3.6000      -3.3000       3.0000       0.0000      -0.12000     -8.26700E-08  1.92381E-02  0.0000       175.90      -186.34       3.59983E-07  1.89702E-07
 -----------------------------------------------------------------------------------------------------------------------------------------------------------------------------------



 WATER MOVER PACKAGE (MVR) FLOW RATES   PERIOD      4   STEP       15
 --------------------------------------------------------------------------------------------------------------------------
                                               PROVIDER  AVAILABLE   PROVIDED                                     RECEIVER 
   NUMBER           PROVIDER LOCATION             ID        RATE       RATE            RECEIVER LOCATION             ID    
 --------------------------------------------------------------------------------------------------------------------------
     1                  E13/SFR-1                 23      31.2       31.2                  E13/LAK-1                 1     
     2                  E13/LAK-1                 1       32.6       32.6                  E13/SFR-1                 24    
     3                  E13/SFR-1                 29      176.       176.                  E13/LAK-1                 2     
     4                  E13/LAK-1                 2       186.       186.                  E13/SFR-1                 30    
     5                  E13/UZF-1                 1       0.00       0.00                  E13/SFR-1                 1     
     6                  E13/UZF-1                 2       0.00       0.00                  E13/SFR-1                 2     
     7                  E13/UZF-1                 3       0.00       0.00                  E13/SFR-1                 2     
     8                  E13/UZF-1                 4       0.00       0.00                  E13/SFR-1                 2     
     9                  E13/UZF-1                 5       0.00       0.00                  E13/SFR-1                 3     
     10                 E13/UZF-1                 6       0.00       0.00                  E13/SFR-1                 11    
     11                 E13/UZF-1                 7       0.00       0.00                  E13/SFR-1                 12    
     12                 E13/UZF-1                 8       0.00       0.00                  E13/SFR-1                 12    
     13                 E13/UZF-1                 9       0.00       0.00                  E13/SFR-1                 2     
     14                 E13/UZF-1                 10      0.00       0.00                  E13/SFR-1                 3     
     15                 E13/UZF-1                 11      0.00       0.00                  E13/SFR-1                 4     
     16                 E13/UZF-1                 12      0.00       0.00                  E13/SFR-1                 10    
     17                 E13/UZF-1                 13      0.00       0.00                  E13/SFR-1                 11    
     18                 E13/UZF-1                 14      0.00       0.00                  E13/SFR-1                 12    
     19                 E13/UZF-1                 15      0.00       0.00                  E13/SFR-1                 13    
     20                 E13/UZF-1                 16      0.00       0.00                  E13/LAK-1                 2     
     21                 E13/UZF-1                 17      0.00       0.00                  E13/LAK-1                 2     
     22                 E13/UZF-1                 18      0.00       0.00                  E13/SFR-1                 3     
     23                 E13/UZF-1                 19      0.00       0.00                  E13/SFR-1                 4     
     24                 E13/UZF-1                 20      0.00       0.00                  E13/SFR-1                 5     
     25                 E13/UZF-1                 21      0.00       0.00                  E13/SFR-1                 6     
     26                 E13/UZF-1                 22      0.00       0.00                  E13/SFR-1                 6     
     27                 E13/UZF-1                 23      0.00       0.00                  E13/SFR-1                 13    
     28                 E13/UZF-1                 24      0.00       0.00                  E13/SFR-1                 17    
     29                 E13/UZF-1                 25      0.00       0.00                  E13/LAK-1                 2     
     30                 E13/UZF-1                 26      0.00       0.00                  E13/LAK-1                 2     
     31                 E13/UZF-1                 27      0.00       0.00                  E13/LAK-1                 2     
     32                 E13/UZF-1                 28      0.00       0.00                  E13/LAK-1                 2     
     33                 E13/UZF-1                 29      0.00       0.00                  E13/SFR-1                 5     
     34                 E13/UZF-1                 30      0.00       0.00                  E13/SFR-1                 6     
     35                 E13/UZF-1                 31      0.00       0.00                  E13/SFR-1                 6     
     36                 E13/UZF-1                 32      0.00       0.00                  E13/SFR-1                 14    
     37                 E13/UZF-1                 33      0.00       0.00                  E13/SFR-1                 17    
     38                 E13/UZF-1                 34      0.00       0.00                  E13/SFR-1                 16    
     39                 E13/UZF-1                 35      0.00       0.00                  E13/LAK-1                 2     
     40                 E13/UZF-1                 36      0.00       0.00                  E13/LAK-1                 2     
     41                 E13/UZF-1                 37      0.00       0.00                  E13/LAK-1                 2     
     42                 E13/UZF-1                 38      0.00       0.00                  E13/LAK-1                 2     
     43                 E13/UZF-1                 39      0.00       0.00                  E13/LAK-1                 2     
     44                 E13/UZF-1                 40      0.00       0.00                  E13/SFR-1                 7     
     45                 E13/UZF-1                 41      0.00       0.00                  E13/SFR-1                 7     
     46                 E13/UZF-1                 42      0.00       0.00                  E13/SFR-1                 19    
     47                 E13/UZF-1                 43      0.00       0.00                  E13/SFR-1                 17    
     48                 E13/UZF-1                 44      0.00       0.00                  E13/SFR-1                 16    
     49                 E13/UZF-1                 45      0.00       0.00                  E13/LAK-1                 2     
     50                 E13/UZF-1                 46      0.00       0.00                  E13/LAK-1                 2     
     51                 E13/UZF-1                 47      0.00       0.00                  E13/LAK-1                 2     
     52                 E13/UZF-1                 48      0.00       0.00                  E13/LAK-1                 2     
     53                 E13/UZF-1                 49      0.00       0.00                  E13/LAK-1                 2     
     54                 E13/UZF-1                 50      0.00       0.00                  E13/SFR-1                 8     
     55                 E13/UZF-1                 51      0.00       0.00                  E13/SFR-1                 20    
     56                 E13/UZF-1                 52      0.00       0.00                  E13/SFR-1                 20    
     57                 E13/UZF-1                 53      0.00       0.00                  E13/SFR-1                 20    
     58                 E13/UZF-1                 54      0.00       0.00                  E13/LAK-1                 2     
     59                 E13/UZF-1                 55      0.00       0.00                  E13/LAK-1                 2     
     60                 E13/UZF-1                 56      0.00       0.00                  E13/LAK-1                 2     
     61                 E13/UZF-1                 57      0.00       0.00                  E13/LAK-1                 2     
     62                 E13/UZF-1                 58      0.00       0.00                  E13/SFR-1                 9     
     63                 E13/UZF-1                 59      0.00       0.00                  E13/SFR-1                 21    
     64                 E13/UZF-1                 60      0.00       0.00                  E13/SFR-1                 21    
     65                 E13/UZF-1                 61      0.00       0.00                  E13/SFR-1                 21    
     66                 E13/UZF-1                 62      0.00       0.00                  E13/LAK-1                 2     
     67                 E13/UZF-1                 63      0.00       0.00                  E13/LAK-1                 2     
     68                 E13/UZF-1                 64      0.00       0.00                  E13/LAK-1                 2     
     69                 E13/UZF-1                 65      0.00       0.00                  E13/LAK-1                 2     
     70                 E13/UZF-1                 66      0.00       0.00                  E13/SFR-1                 23    
     71                 E13/UZF-1                 67      0.00       0.00                  E13/LAK-1                 1     
     72                 E13/UZF-1                 68      0.00       0.00                  E13/LAK-1                 1     
     73                 E13/UZF-1                 69      0.00       0.00                  E13/LAK-1                 1     
     74                 E13/UZF-1                 70      0.00       0.00                  E13/LAK-1                 2     
     75                 E13/UZF-1                 71      0.00       0.00                  E13/LAK-1                 2     
     76                 E13/UZF-1                 72      0.00       0.00                  E13/LAK-1                 2     
     77                 E13/UZF-1                 73      0.00       0.00                  E13/LAK-1                 2     
     78                 E13/UZF-1                 74      0.00       0.00                  E13/LAK-1                 1     
     79                 E13/UZF-1                 75      0.00       0.00                  E13/LAK-1                 1     
     80                 E13/UZF-1                 76      0.00       0.00                  E13/LAK-1                 1     
     81                 E13/UZF-1                 77      0.00       0.00                  E13/LAK-1                 2     
     82                 E13/UZF-1                 78      0.00       0.00                  E13/SFR-1                 9     
     83                 E13/UZF-1                 79      0.00       0.00                  E13/LAK-1                 1     
     84                 E13/UZF-1                 80      0.00       0.00                  E13/SFR-1                 31    
     85                 E13/UZF-1                 81      0.00       0.00                  E13/SFR-1                 30    
     86                 E13/UZF-1                 82      0.00       0.00                  E13/SFR-1                 9     
     87                 E13/UZF-1                 83      0.00       0.00                  E13/SFR-1                 24    
     88                 E13/UZF-1                 84      0.00       0.00                  E13/LAK-1                 1     
     89                 E13/UZF-1                 85      0.00       0.00                  E13/LAK-1                 1     
     90                 E13/UZF-1                 86      5.99       5.99                  E13/SFR-1                 31    
     91                 E13/UZF-1                 87      0.00       0.00                  E13/SFR-1                 30    
     92                 E13/UZF-1                 88      0.00       0.00                  E13/SFR-1                 29    
     93                 E13/UZF-1                 89      0.00       0.00                  E13/SFR-1                 28    
     94                 E13/UZF-1                 90      0.00       0.00                  E13/SFR-1                 27    
     95                 E13/UZF-1                 91      0.00       0.00                  E13/SFR-1                 26    
     96                 E13/UZF-1                 92      0.00       0.00                  E13/SFR-1                 30    
     97                 E13/UZF-1                 93      0.00       0.00                  E13/LAK-1                 2     
     98                 E13/UZF-1                 94      0.00       0.00                  E13/SFR-1                 28    
     99                 E13/UZF-1                 95      0.00       0.00                  E13/SFR-1                 27    
    100                 E13/UZF-1                 96      0.00       0.00                  E13/SFR-1                 26    
    101                 E13/UZF-1                 97      0.00       0.00                  E13/LAK-1                 2     
    102                 E13/UZF-1                 98      0.00       0.00                  E13/LAK-1                 2     
    103                 E13/UZF-1                 99      0.00       0.00                  E13/LAK-1                 2     
    104                 E13/UZF-1                100      0.00       0.00                  E13/LAK-1                 2     
    105                 E13/WEL-1                 1       0.850      0.850                 E13/UZF-1                 38    
    106                 E13/WEL-1                 2       0.850      0.850                 E13/UZF-1                 39    
    107                 E13/WEL-1                 3       0.850      0.850                 E13/UZF-1                 48    
    108                 E13/WEL-1                 4       0.850      0.850                 E13/UZF-1                 49    
    109                 E13/WEL-1                 5       0.850      0.850                 E13/UZF-1                 56    
    110                 E13/WEL-1                 6       0.850      0.850                 E13/UZF-1                 57    
    111                 E13/WEL-1                 7       0.850      0.850                 E13/UZF-1                 64    
    112                 E13/WEL-1                 8       0.850      0.850                 E13/UZF-1                 65    
    113                 E13/WEL-1                 9       0.850      0.850                 E13/UZF-1                 72    
    114                 E13/WEL-1                 10      0.850      0.850                 E13/UZF-1                 73    
 --------------------------------------------------------------------------------------------------------------------------



 SFR PACKAGE (SFR-1) STAGES FOR EACH CONTROL VOLUME   PERIOD      4   STEP       15
 ------------------------------------------------------------------------------------------------------------------------------------------------------
                                                                                                                               STREAMBED    STREAMBED  
 NAME                                       NUMBER   CELLID                  STAGE        DEPTH        WIDTH       GWF HEAD   CONDUCTANCE    GRADIENT  
 ------------------------------------------------------------------------------------------------------------------------------------------------------
 ALLREACHES                                   1      (1,1,1)               1094.3       1.2349       12.000       1019.4       5.40000E-02  1.4116     
 ALLREACHES                                   2      (1,2,2)               1089.3       1.2262       12.000       1019.7       8.40000E-02  1.4087     
 ALLREACHES                                   3      (1,3,3)               1083.6       1.2163       12.000       1019.3       7.20000E-02  1.4054     
 ALLREACHES                                   4      (1,3,4)               1078.6       1.2075       12.000       1019.2       6.66000E-02  1.4025     
 ALLREACHES                                   5      (1,4,5)               1072.8       0.84113      12.000       1019.2       7.80000E-02  1.2804     
 ALLREACHES                                   6      (1,5,6)               1067.3       0.83133      12.000       1018.9       6.00000E-02  1.2771     
 ALLREACHES                                   7      (1,6,6)               1062.6       0.82276      12.000       1018.7       6.00000E-02  1.2743     
 ALLREACHES                                   8      (1,7,6)               1057.9       0.81415      12.000       1018.7       6.00000E-02  1.2714     
 ALLREACHES                                   9      (1,8,6)               1053.2       0.80551      12.000       1018.7       6.00000E-02  1.2685     
 ALLREACHES                                   10     (1,3,5)               1074.6       0.93630      9.6364       1018.4       7.22727E-03  1.4681     
 ALLREACHES                                   11     (1,3,6)               1071.9       0.98022      8.9091       1018.4       6.68182E-03  1.4901     
 ALLREACHES                                   12     (1,3,7)               1069.3       1.0277       8.2182       1018.4       5.54727E-03  1.5139     
 ALLREACHES                                   13     (1,4,8)               1066.5       1.0884       7.4545       1018.4       6.70909E-03  1.5442     
 ALLREACHES                                   14     (1,5,8)               1063.6       1.1639       6.6545       1018.5       4.99091E-03  1.5819     
 ALLREACHES                                   15     (1,6,8)               1061.8       1.2200       6.1455       1019.1       1.84364E-03  1.6100     
 ALLREACHES                                   16     (1,5,10)              1078.4       0.63679      10.000       1018.7       2.50000E-02  1.2123     
 ALLREACHES                                   17     (1,5,9)               1071.5       0.63155      10.000       1019.0       5.00000E-02  1.2105     
 ALLREACHES                                   18     (1,6,8)               1063.8       0.62558      10.000       1019.1       3.50000E-02  1.2085     
 ALLREACHES                                   19     (1,6,8)               1060.0       1.2846       10.000       1019.1       4.00000E-02  1.4282     
 ALLREACHES                                   20     (1,7,7)               1056.9       1.2770       10.000       1018.8       5.00000E-02  1.4257     
 ALLREACHES                                   21     (1,8,7)               1054.1       1.2697       10.000       1018.6       3.50000E-02  1.4232     
 ALLREACHES                                   22     (1,8,6)               1052.1       1.2646       10.000       1018.7       2.50000E-02  1.4215     
 ALLREACHES                                   23     (1,9,6)               1046.6       1.1396       12.000       1018.1       6.00000E-02  1.3799     
 ALLREACHES                                   24     (1,12,7)              1037.7       1.2504       12.000       1018.7       6.00000E-03  1.4168     
 ALLREACHES                                   25     (1,13,7)              1030.2       1.2498       12.000       1021.5       6.60000E-03  1.4166     
 ALLREACHES                                   26     (1,14,9)              1034.8       1.4870       60.000       1026.3       0.60000      1.4957     
 ALLREACHES                                   27     (1,13,8)              1031.5       1.4708       60.000       1023.4       0.60000      1.4903     
 ALLREACHES                                   28     (1,13,7)              1028.1       1.4546       60.000       1021.5       0.60000      1.4849     
 ALLREACHES                                   29     (1,13,6)              1013.9       0.90770      60.000       1016.2       0.60000     -0.76733    
 ALLREACHES                                   30     (1,13,2)              998.29       1.4170       60.000       1003.2       0.60000     -1.6411     
 ALLREACHES                                   31     (1,13,1)              993.33       1.4534       60.000       997.00       0.36000     -1.2249     
 ------------------------------------------------------------------------------------------------------------------------------------------------------



 LAK PACKAGE (LAK-1) STAGES FOR EACH CONTROL VOLUME   PERIOD      4   STEP       15
 --------------------------------------------------------------
   NUMBER      STAGE     SURFACE AREA WETTED AREA     VOLUME   
 --------------------------------------------------------------
     1       1041.3       1.00000E+08  1.01383E+08  4.27511E+09
     2       1001.4       3.00000E+08  3.01387E+08  5.29808E+09
 --------------------------------------------------------------



 HEAD WILL BE SAVED ON UNIT 1026 AT END OF TIME STEP   15, STRESS PERIOD    4


  SFR-1 BUDGET FOR ENTIRE MODEL AT END OF TIME STEP   15, STRESS PERIOD   4
  ------------------------------------------------------------------------------

     CUMULATIVE SFR-1      L**3       RATES FOR THIS TIME STEP      L**3/T
     ------------------                 ------------------------

           IN:                                      IN:
           ---                                      ---
                 GWF =    58599224.1189                   GWF =           5.6581
            RAINFALL =           0.0000              RAINFALL =           0.0000
         EVAPORATION =           0.0000           EVAPORATION =           0.0000
              RUNOFF =           0.0000                RUNOFF =           0.0000
          EXT-INFLOW =  1944720000.0000            EXT-INFLOW =         185.0000
         EXT-OUTFLOW =           0.0000           EXT-OUTFLOW =           0.0000
             STORAGE =           0.0000               STORAGE =           0.0000
            FROM-MVR =  2364318382.2207              FROM-MVR =         224.9472
              TO-MVR =           0.0000                TO-MVR =           0.0000

            TOTAL IN =  4367637606.3397              TOTAL IN =         415.6053

          OUT:                                     OUT:
          ----                                     ----
                 GWF =   124818720.1056                   GWF =          11.8739
            RAINFALL =           0.0000              RAINFALL =           0.0000
         EVAPORATION =           0.0000           EVAPORATION =           0.0000
              RUNOFF =           0.0000                RUNOFF =           0.0000
          EXT-INFLOW =           0.0000            EXT-INFLOW =           0.0000
         EXT-OUTFLOW =  2065442181.5877           EXT-OUTFLOW =         196.6076
             STORAGE =           0.0000               STORAGE =           0.0000
            FROM-MVR =           0.0000              FROM-MVR =           0.0000
              TO-MVR =  2177376704.6464                TO-MVR =         207.1238

           TOTAL OUT =  4367637606.3397             TOTAL OUT =         415.6053

            IN - OUT =       9.5367E-07              IN - OUT =           0.0000

 PERCENT DISCREPANCY =           0.00     PERCENT DISCREPANCY =           0.00



  LAK-1 BUDGET FOR ENTIRE MODEL AT END OF TIME STEP   15, STRESS PERIOD   4
  ------------------------------------------------------------------------------

     CUMULATIVE LAK-1      L**3       RATES FOR THIS TIME STEP      L**3/T
     ------------------                 ------------------------

           IN:                                      IN:
           ---                                      ---
                 GWF =    76632377.4058                   GWF =           7.2466
            RAINFALL =    90403200.0000              RAINFALL =           8.6000
         EVAPORATION =           0.0000           EVAPORATION =           0.0000
              RUNOFF =    47304000.0000                RUNOFF =           4.5000
          EXT-INFLOW =           0.0000            EXT-INFLOW =           0.0000
          WITHDRAWAL =           0.0000            WITHDRAWAL =           0.0000
         EXT-OUTFLOW =           0.0000           EXT-OUTFLOW =           0.0000
             STORAGE =       95914.0923               STORAGE =       2.6158E-02
            CONSTANT =           0.0000              CONSTANT =           0.0000
            FROM-MVR =  2177376704.6464              FROM-MVR =         207.1238
              TO-MVR =           0.0000                TO-MVR =           0.0000

            TOTAL IN =  2391812196.1445              TOTAL IN =         227.4965

          OUT:                                     OUT:
          ----                                     ----
                 GWF =    43139478.2892                   GWF =           4.1175
            RAINFALL =           0.0000              RAINFALL =           0.0000
         EVAPORATION =    45201600.0000           EVAPORATION =           4.3000
              RUNOFF =           0.0000                RUNOFF =           0.0000
          EXT-INFLOW =           0.0000            EXT-INFLOW =           0.0000
          WITHDRAWAL =     1261440.0000            WITHDRAWAL =           0.1200
         EXT-OUTFLOW =           0.8284           EXT-OUTFLOW =       8.2670E-08
             STORAGE =          64.9850               STORAGE =           0.0000
            CONSTANT =           0.0000              CONSTANT =           0.0000
            FROM-MVR =           0.0000              FROM-MVR =           0.0000
              TO-MVR =  2302209608.9809                TO-MVR =         218.9590

           TOTAL OUT =  2391812193.0834             TOTAL OUT =         227.4965

            IN - OUT =           3.0611              IN - OUT =       3.7026E-07

 PERCENT DISCREPANCY =           0.00     PERCENT DISCREPANCY =           0.00



  UZF-1 BUDGET FOR ENTIRE MODEL AT END OF TIME STEP   15, STRESS PERIOD   4
  ------------------------------------------------------------------------------

     CUMULATIVE UZF-1      L**3       RATES FOR THIS TIME STEP      L**3/T
     ------------------                 ------------------------

           IN:                                      IN:
           ---                                      ---
                 GWF =           0.0000                   GWF =           0.0000
        INFILTRATION =  1414015635.6000          INFILTRATION =         153.0000
             REJ-INF =           0.0000               REJ-INF =           0.0000
                UZET =           0.0000                  UZET =           0.0000
             STORAGE =     1331424.4782               STORAGE =       3.7894E-02
            FROM-MVR =    44676000.0000              FROM-MVR =           8.5000
      REJ-INF-TO-MVR =           0.0000        REJ-INF-TO-MVR =           0.0000

            TOTAL IN =  1460023060.0782              TOTAL IN =         161.5379

          OUT:                                     OUT:
          ----                                     ----
                 GWF =    12500928.9224                   GWF =           0.7355
        INFILTRATION =           0.0000          INFILTRATION =           0.0000
             REJ-INF =           3.8358               REJ-INF =       5.9122E-07
                UZET =   191817413.4577                  UZET =          24.3284
             STORAGE =  1251083772.6065               STORAGE =         135.9740
            FROM-MVR =           0.0000              FROM-MVR =           0.0000
      REJ-INF-TO-MVR =     4620941.2521        REJ-INF-TO-MVR =           0.5000

           TOTAL OUT =  1460023060.0743             TOTAL OUT =         161.5379

            IN - OUT =       3.8669E-03              IN - OUT =      -2.3306E-12

 PERCENT DISCREPANCY =           0.00     PERCENT DISCREPANCY =          -0.00



  WATER MOVER BUDGET FOR ENTIRE MODEL AT END OF TIME STEP   15, STRESS PERIOD   4
  ------------------------------------------------------------------------------

     CUMULATIVE WATER MOVER      L**3       RATES FOR THIS TIME STEP      L**3/T
     ------------------                 ------------------------

           IN:                                      IN:
           ---                                      ---
               UZF-1 =    62108773.2398                 UZF-1 =           5.9882
               SFR-1 =  2177376704.6464                 SFR-1 =         207.1238
               LAK-1 =  2302209608.9809                 LAK-1 =         218.9590
               WEL-1 =    44676000.0000                 WEL-1 =           8.5000

            TOTAL IN =  4586371086.8672              TOTAL IN =         440.5710

          OUT:                                     OUT:
          ----                                     ----
               UZF-1 =    44676000.0000                 UZF-1 =           8.5000
               SFR-1 =  2364318382.2207                 SFR-1 =         224.9472
               LAK-1 =  2177376704.6464                 LAK-1 =         207.1238
               WEL-1 =           0.0000                 WEL-1 =           0.0000

           TOTAL OUT =  4586371086.8672             TOTAL OUT =         440.5710

            IN - OUT =       9.5367E-07              IN - OUT =      -5.6843E-14

 PERCENT DISCREPANCY =           0.00     PERCENT DISCREPANCY =          -0.00



  VOLUME BUDGET FOR ENTIRE MODEL AT END OF TIME STEP   15, STRESS PERIOD   4
  ---------------------------------------------------------------------------------------------------

     CUMULATIVE VOLUME      L**3       RATES FOR THIS TIME STEP      L**3/T          PACKAGE NAME    
     ------------------                 ------------------------                     ----------------

           IN:                                      IN:
           ---                                      ---
              STO-SS =      246092.2571                STO-SS =       4.1260E-02     STORAGE                          
              STO-SY =    60811467.9003                STO-SY =          10.3948     STORAGE                          
                 WEL =           0.0000                   WEL =           0.0000     WEL-1                            
          WEL-TO-MVR =           0.0000            WEL-TO-MVR =           0.0000     WEL-1                            
                 GHB =     7474857.5664                   GHB =           0.7117     GHB_0                            
                 SFR =   124818720.1056                   SFR =          11.8739     SFR-1                            
                 LAK =    43139478.2892                   LAK =           4.1175     LAK-1                            
           UZF-GWRCH =    12500928.9224             UZF-GWRCH =           0.7355     UZF-1                            
             UZF-GWD =           0.0000               UZF-GWD =           0.0000     UZF-1                            
      UZF-GWD TO-MVR =           0.0000        UZF-GWD TO-MVR =           0.0000     UZF-1                            
            UZF-GWET =           0.0000              UZF-GWET =           0.0000     UZF-1                            

            TOTAL IN =   248991545.0410              TOTAL IN =          27.8746

          OUT:                                     OUT:
          ----                                     ----
              STO-SS =        1403.9667                STO-SS =       2.8722E-05     STORAGE                          
              STO-SY =     2146583.1413                STO-SY =           0.1167     STORAGE                          
                 WEL =           0.0000                   WEL =           0.0000     WEL-1                            
          WEL-TO-MVR =    44676000.0000            WEL-TO-MVR =           8.5000     WEL-1                            
                 GHB =     3596298.7025                   GHB =           0.3421     GHB_0                            
                 SFR =    58599325.0364                   SFR =           5.6581     SFR-1                            
                 LAK =    76632377.4058                   LAK =           7.2466     LAK-1                            
           UZF-GWRCH =           0.0000             UZF-GWRCH =           0.0000     UZF-1                            
             UZF-GWD =          33.9318               UZF-GWD =       6.4894E-06     UZF-1                            
      UZF-GWD TO-MVR =    57487831.9877        UZF-GWD TO-MVR =           5.4882     UZF-1                            
            UZF-GWET =     5850017.7815              UZF-GWET =           0.5228     UZF-1                            

           TOTAL OUT =   248989871.9537             TOTAL OUT =          27.8744

            IN - OUT =        1673.0874              IN - OUT =       1.8709E-04

 PERCENT DISCREPANCY =           0.00     PERCENT DISCREPANCY =           0.00




         TIME SUMMARY AT END OF TIME STEP   15 IN STRESS PERIOD    4
                    SECONDS     MINUTES      HOURS       DAYS        YEARS
                    -----------------------------------------------------------
   TIME STEP LENGTH 1.75200E+05  2920.0      48.667      2.0278     5.55175E-03
 STRESS PERIOD TIME 2.62800E+06  43800.      730.00      30.417     8.32763E-02
         TOTAL TIME 1.05120E+07 1.75200E+05  2920.0      121.67     0.33311    


end timestep


start timestep kper="5" kstp="1" mode="normal"


 OUTPUT CONTROL FOR STRESS PERIOD 5 IS REPEATED USING SETTINGS FROM A PREVIOUS STRESS PERIOD.


 STRESS PERIOD 5 IS TRANSIENT


 REUSING MVRS FROM LAST STRESS PERIOD
 ----------------------------------
  WEL NO.    LAYER    ROW     COL  
 ----------------------------------
     1         1       4       8   
     2         1       4       9   
     3         1       5       8   
     4         1       5       9   
     5         1       6       6   
     6         1       6       7   
     7         1       7       4   
     8         1       7       5   
     9         1       8       2   
     10        1       8       3   
 ----------------------------------



 REUSING SFRS FROM LAST STRESS PERIOD

 REUSING LAKS FROM LAST STRESS PERIOD

end timestep


start timestep kper="5" kstp="2" mode="normal"


end timestep


start timestep kper="5" kstp="3" mode="normal"


end timestep


start timestep kper="5" kstp="4" mode="normal"


end timestep


start timestep kper="5" kstp="5" mode="normal"


end timestep


start timestep kper="5" kstp="6" mode="normal"


end timestep


start timestep kper="5" kstp="7" mode="normal"


end timestep


start timestep kper="5" kstp="8" mode="normal"


end timestep


start timestep kper="5" kstp="9" mode="normal"


end timestep


start timestep kper="5" kstp="10" mode="normal"


end timestep


start timestep kper="5" kstp="11" mode="normal"


end timestep


start timestep kper="5" kstp="12" mode="normal"


end timestep


start timestep kper="5" kstp="13" mode="normal"


end timestep


start timestep kper="5" kstp="14" mode="normal"


end timestep


start timestep kper="5" kstp="15" mode="normal"

 UBDSV1 SAVING           STO-SS ON UNIT   1025 AT TIME STEP     15, STRESS PERIOD      5
 UBDSV1 SAVING           STO-SY ON UNIT   1025 AT TIME STEP     15, STRESS PERIOD      5
 UBDSV1 SAVING     FLOW-JA-FACE ON UNIT   1025 AT TIME STEP     15, STRESS PERIOD      5
 UBDSV06 SAVING       DATA-SPDIS IN MODEL E13              PACKAGE NPF             CONNECTED TO MODEL E13              PACKAGE NPF              ON UNIT   1025 AT TIME STEP     15, STRESS PERIOD      5
 UBDSV06 SAVING              WEL IN MODEL E13              PACKAGE E13             CONNECTED TO MODEL E13              PACKAGE WEL-1            ON UNIT   1025 AT TIME STEP     15, STRESS PERIOD      5
 UBDSV06 SAVING       WEL-TO-MVR IN MODEL E13              PACKAGE E13             CONNECTED TO MODEL E13              PACKAGE WEL-1            ON UNIT   1025 AT TIME STEP     15, STRESS PERIOD      5
 UBDSV06 SAVING              GHB IN MODEL E13              PACKAGE E13             CONNECTED TO MODEL E13              PACKAGE GHB_0            ON UNIT   1025 AT TIME STEP     15, STRESS PERIOD      5
 UBDSV06 SAVING              SFR IN MODEL E13              PACKAGE E13             CONNECTED TO MODEL E13              PACKAGE SFR-1            ON UNIT   1025 AT TIME STEP     15, STRESS PERIOD      5
 UBDSV06 SAVING              LAK IN MODEL E13              PACKAGE E13             CONNECTED TO MODEL E13              PACKAGE LAK-1            ON UNIT   1025 AT TIME STEP     15, STRESS PERIOD      5
 UBDSV06 SAVING        UZF-GWRCH IN MODEL E13              PACKAGE E13             CONNECTED TO MODEL E13              PACKAGE UZF-1            ON UNIT   1025 AT TIME STEP     15, STRESS PERIOD      5
 UBDSV06 SAVING          UZF-GWD IN MODEL E13              PACKAGE E13             CONNECTED TO MODEL E13              PACKAGE UZF-1            ON UNIT   1025 AT TIME STEP     15, STRESS PERIOD      5
 UBDSV06 SAVING   UZF-GWD TO-MVR IN MODEL E13              PACKAGE E13             CONNECTED TO MODEL E13              PACKAGE UZF-1            ON UNIT   1025 AT TIME STEP     15, STRESS PERIOD      5
 UBDSV06 SAVING         UZF-GWET IN MODEL E13              PACKAGE E13             CONNECTED TO MODEL E13              PACKAGE UZF-1            ON UNIT   1025 AT TIME STEP     15, STRESS PERIOD      5
 UBDSV06 SAVING     FLOW-JA-FACE IN MODEL E13              PACKAGE SFR-1           CONNECTED TO MODEL E13              PACKAGE SFR-1            ON UNIT   1017 AT TIME STEP     15, STRESS PERIOD      5
 UBDSV06 SAVING              GWF IN MODEL E13              PACKAGE SFR-1           CONNECTED TO MODEL E13              PACKAGE E13              ON UNIT   1017 AT TIME STEP     15, STRESS PERIOD      5
 UBDSV06 SAVING         RAINFALL IN MODEL E13              PACKAGE SFR-1           CONNECTED TO MODEL E13              PACKAGE SFR-1            ON UNIT   1017 AT TIME STEP     15, STRESS PERIOD      5
 UBDSV06 SAVING      EVAPORATION IN MODEL E13              PACKAGE SFR-1           CONNECTED TO MODEL E13              PACKAGE SFR-1            ON UNIT   1017 AT TIME STEP     15, STRESS PERIOD      5
 UBDSV06 SAVING           RUNOFF IN MODEL E13              PACKAGE SFR-1           CONNECTED TO MODEL E13              PACKAGE SFR-1            ON UNIT   1017 AT TIME STEP     15, STRESS PERIOD      5
 UBDSV06 SAVING       EXT-INFLOW IN MODEL E13              PACKAGE SFR-1           CONNECTED TO MODEL E13              PACKAGE SFR-1            ON UNIT   1017 AT TIME STEP     15, STRESS PERIOD      5
 UBDSV06 SAVING      EXT-OUTFLOW IN MODEL E13              PACKAGE SFR-1           CONNECTED TO MODEL E13              PACKAGE SFR-1            ON UNIT   1017 AT TIME STEP     15, STRESS PERIOD      5
 UBDSV06 SAVING          STORAGE IN MODEL E13              PACKAGE SFR-1           CONNECTED TO MODEL E13              PACKAGE SFR-1            ON UNIT   1017 AT TIME STEP     15, STRESS PERIOD      5
 UBDSV06 SAVING         FROM-MVR IN MODEL E13              PACKAGE SFR-1           CONNECTED TO MODEL E13              PACKAGE SFR-1            ON UNIT   1017 AT TIME STEP     15, STRESS PERIOD      5
 UBDSV06 SAVING           TO-MVR IN MODEL E13              PACKAGE SFR-1           CONNECTED TO MODEL E13              PACKAGE SFR-1            ON UNIT   1017 AT TIME STEP     15, STRESS PERIOD      5
 UBDSV06 SAVING              GWF IN MODEL E13              PACKAGE LAK-1           CONNECTED TO MODEL E13              PACKAGE E13              ON UNIT   1019 AT TIME STEP     15, STRESS PERIOD      5
 UBDSV06 SAVING         RAINFALL IN MODEL E13              PACKAGE LAK-1           CONNECTED TO MODEL E13              PACKAGE LAK-1            ON UNIT   1019 AT TIME STEP     15, STRESS PERIOD      5
 UBDSV06 SAVING      EVAPORATION IN MODEL E13              PACKAGE LAK-1           CONNECTED TO MODEL E13              PACKAGE LAK-1            ON UNIT   1019 AT TIME STEP     15, STRESS PERIOD      5
 UBDSV06 SAVING           RUNOFF IN MODEL E13              PACKAGE LAK-1           CONNECTED TO MODEL E13              PACKAGE LAK-1            ON UNIT   1019 AT TIME STEP     15, STRESS PERIOD      5
 UBDSV06 SAVING       EXT-INFLOW IN MODEL E13              PACKAGE LAK-1           CONNECTED TO MODEL E13              PACKAGE LAK-1            ON UNIT   1019 AT TIME STEP     15, STRESS PERIOD      5
 UBDSV06 SAVING       WITHDRAWAL IN MODEL E13              PACKAGE LAK-1           CONNECTED TO MODEL E13              PACKAGE LAK-1            ON UNIT   1019 AT TIME STEP     15, STRESS PERIOD      5
 UBDSV06 SAVING      EXT-OUTFLOW IN MODEL E13              PACKAGE LAK-1           CONNECTED TO MODEL E13              PACKAGE LAK-1            ON UNIT   1019 AT TIME STEP     15, STRESS PERIOD      5
 UBDSV06 SAVING          STORAGE IN MODEL E13              PACKAGE LAK-1           CONNECTED TO MODEL E13              PACKAGE LAK-1            ON UNIT   1019 AT TIME STEP     15, STRESS PERIOD      5
 UBDSV06 SAVING         CONSTANT IN MODEL E13              PACKAGE LAK-1           CONNECTED TO MODEL E13              PACKAGE LAK-1            ON UNIT   1019 AT TIME STEP     15, STRESS PERIOD      5
 UBDSV06 SAVING         FROM-MVR IN MODEL E13              PACKAGE LAK-1           CONNECTED TO MODEL E13              PACKAGE LAK-1            ON UNIT   1019 AT TIME STEP     15, STRESS PERIOD      5
 UBDSV06 SAVING           TO-MVR IN MODEL E13              PACKAGE LAK-1           CONNECTED TO MODEL E13              PACKAGE LAK-1            ON UNIT   1019 AT TIME STEP     15, STRESS PERIOD      5
 UBDSV06 SAVING     FLOW-JA-FACE IN MODEL E13              PACKAGE UZF-1           CONNECTED TO MODEL E13              PACKAGE UZF-1            ON UNIT   1021 AT TIME STEP     15, STRESS PERIOD      5
 UBDSV06 SAVING              GWF IN MODEL E13              PACKAGE UZF-1           CONNECTED TO MODEL E13              PACKAGE E13              ON UNIT   1021 AT TIME STEP     15, STRESS PERIOD      5
 UBDSV06 SAVING     INFILTRATION IN MODEL E13              PACKAGE UZF-1           CONNECTED TO MODEL E13              PACKAGE UZF-1            ON UNIT   1021 AT TIME STEP     15, STRESS PERIOD      5
 UBDSV06 SAVING          REJ-INF IN MODEL E13              PACKAGE UZF-1           CONNECTED TO MODEL E13              PACKAGE UZF-1            ON UNIT   1021 AT TIME STEP     15, STRESS PERIOD      5
 UBDSV06 SAVING             UZET IN MODEL E13              PACKAGE UZF-1           CONNECTED TO MODEL E13              PACKAGE UZF-1            ON UNIT   1021 AT TIME STEP     15, STRESS PERIOD      5
 UBDSV06 SAVING          STORAGE IN MODEL E13              PACKAGE UZF-1           CONNECTED TO MODEL E13              PACKAGE UZF-1            ON UNIT   1021 AT TIME STEP     15, STRESS PERIOD      5
 UBDSV06 SAVING         FROM-MVR IN MODEL E13              PACKAGE UZF-1           CONNECTED TO MODEL E13              PACKAGE UZF-1            ON UNIT   1021 AT TIME STEP     15, STRESS PERIOD      5
 UBDSV06 SAVING   REJ-INF-TO-MVR IN MODEL E13              PACKAGE UZF-1           CONNECTED TO MODEL E13              PACKAGE UZF-1            ON UNIT   1021 AT TIME STEP     15, STRESS PERIOD      5
 UBDSV06 SAVING       MOVER-FLOW IN MODEL E13              PACKAGE UZF-1           CONNECTED TO MODEL E13              PACKAGE UZF-1            ON UNIT   1023 AT TIME STEP     15, STRESS PERIOD      5
 UBDSV06 SAVING       MOVER-FLOW IN MODEL E13              PACKAGE UZF-1           CONNECTED TO MODEL E13              PACKAGE SFR-1            ON UNIT   1023 AT TIME STEP     15, STRESS PERIOD      5
 UBDSV06 SAVING       MOVER-FLOW IN MODEL E13              PACKAGE UZF-1           CONNECTED TO MODEL E13              PACKAGE LAK-1            ON UNIT   1023 AT TIME STEP     15, STRESS PERIOD      5
 UBDSV06 SAVING       MOVER-FLOW IN MODEL E13              PACKAGE UZF-1           CONNECTED TO MODEL E13              PACKAGE WEL-1            ON UNIT   1023 AT TIME STEP     15, STRESS PERIOD      5
 UBDSV06 SAVING       MOVER-FLOW IN MODEL E13              PACKAGE SFR-1           CONNECTED TO MODEL E13              PACKAGE UZF-1            ON UNIT   1023 AT TIME STEP     15, STRESS PERIOD      5
 UBDSV06 SAVING       MOVER-FLOW IN MODEL E13              PACKAGE SFR-1           CONNECTED TO MODEL E13              PACKAGE SFR-1            ON UNIT   1023 AT TIME STEP     15, STRESS PERIOD      5
 UBDSV06 SAVING       MOVER-FLOW IN MODEL E13              PACKAGE SFR-1           CONNECTED TO MODEL E13              PACKAGE LAK-1            ON UNIT   1023 AT TIME STEP     15, STRESS PERIOD      5
 UBDSV06 SAVING       MOVER-FLOW IN MODEL E13              PACKAGE SFR-1           CONNECTED TO MODEL E13              PACKAGE WEL-1            ON UNIT   1023 AT TIME STEP     15, STRESS PERIOD      5
 UBDSV06 SAVING       MOVER-FLOW IN MODEL E13              PACKAGE LAK-1           CONNECTED TO MODEL E13              PACKAGE UZF-1            ON UNIT   1023 AT TIME STEP     15, STRESS PERIOD      5
 UBDSV06 SAVING       MOVER-FLOW IN MODEL E13              PACKAGE LAK-1           CONNECTED TO MODEL E13              PACKAGE SFR-1            ON UNIT   1023 AT TIME STEP     15, STRESS PERIOD      5
 UBDSV06 SAVING       MOVER-FLOW IN MODEL E13              PACKAGE LAK-1           CONNECTED TO MODEL E13              PACKAGE LAK-1            ON UNIT   1023 AT TIME STEP     15, STRESS PERIOD      5
 UBDSV06 SAVING       MOVER-FLOW IN MODEL E13              PACKAGE LAK-1           CONNECTED TO MODEL E13              PACKAGE WEL-1            ON UNIT   1023 AT TIME STEP     15, STRESS PERIOD      5
 UBDSV06 SAVING       MOVER-FLOW IN MODEL E13              PACKAGE WEL-1           CONNECTED TO MODEL E13              PACKAGE UZF-1            ON UNIT   1023 AT TIME STEP     15, STRESS PERIOD      5
 UBDSV06 SAVING       MOVER-FLOW IN MODEL E13              PACKAGE WEL-1           CONNECTED TO MODEL E13              PACKAGE SFR-1            ON UNIT   1023 AT TIME STEP     15, STRESS PERIOD      5
 UBDSV06 SAVING       MOVER-FLOW IN MODEL E13              PACKAGE WEL-1           CONNECTED TO MODEL E13              PACKAGE LAK-1            ON UNIT   1023 AT TIME STEP     15, STRESS PERIOD      5
 UBDSV06 SAVING       MOVER-FLOW IN MODEL E13              PACKAGE WEL-1           CONNECTED TO MODEL E13              PACKAGE WEL-1            ON UNIT   1023 AT TIME STEP     15, STRESS PERIOD      5

 WEL PACKAGE (WEL-1) FLOW RATES   PERIOD      5   STEP       15
 -----------------------------------------------
   NUMBER   CELLID                    RATE      
 -----------------------------------------------
     1      (1,6,4)               0.0000000     
     2      (1,6,5)               0.0000000     
     3      (1,7,4)               0.0000000     
     4      (1,7,5)               0.0000000     
     5      (1,8,4)               0.0000000     
     6      (1,8,5)               0.0000000     
     7      (1,9,4)               0.0000000     
     8      (1,9,5)               0.0000000     
     9      (1,10,4)              0.0000000     
     10     (1,10,5)              0.0000000     
 -----------------------------------------------




 WEL PACKAGE (WEL-1) FLOW RATES TO-MVR   PERIOD      5   STEP       15
 -----------------------------------------------
   NUMBER   CELLID                    RATE      
 -----------------------------------------------
     1      (1,6,4)              -1.7000000     
     2      (1,6,5)              -1.7000000     
     3      (1,7,4)              -1.7000000     
     4      (1,7,5)              -1.7000000     
     5      (1,8,4)              -1.7000000     
     6      (1,8,5)              -1.7000000     
     7      (1,9,4)              -1.7000000     
     8      (1,9,5)              -1.7000000     
     9      (1,10,4)             -1.7000000     
     10     (1,10,5)             -1.7000000     
 -----------------------------------------------




 SFR PACKAGE (SFR-1) FLOW RATES   PERIOD      5   STEP       15
 ----------------------------------------------------------------------------------------
   NUMBER   CELLID                    RATE       NAME                                    
 ----------------------------------------------------------------------------------------
     1      (1,1,1)               0.22868377     ALLREACHES                              
     2      (1,2,2)               0.35499870     ALLREACHES                              
     3      (1,3,3)               0.30357347     ALLREACHES                              
     4      (1,3,4)               0.28021936     ALLREACHES                              
     5      (1,4,5)               0.29960805     ALLREACHES                              
     6      (1,5,6)               0.22987955     ALLREACHES                              
     7      (1,6,6)               0.22936563     ALLREACHES                              
     8      (1,7,6)               0.22884928     ALLREACHES                              
     9      (1,8,6)               0.22833044     ALLREACHES                              
     10     (1,3,5)               2.12214188E-02 ALLREACHES                              
     11     (1,3,6)               1.99133007E-02 ALLREACHES                              
     12     (1,3,7)               1.67956407E-02 ALLREACHES                              
     13     (1,4,8)               2.07205450E-02 ALLREACHES                              
     14     (1,5,8)               1.57905563E-02 ALLREACHES                              
     15     (1,6,8)               5.93648362E-03 ALLREACHES                              
     16     (1,5,10)              9.09197693E-02 ALLREACHES                              
     17     (1,5,9)               0.18157734     ALLREACHES                              
     18     (1,6,8)               0.12689514     ALLREACHES                              
     19     (1,6,8)               0.17138468     ALLREACHES                              
     20     (1,7,7)               0.21384773     ALLREACHES                              
     21     (1,8,7)               0.14943953     ALLREACHES                              
     22     (1,8,6)               0.10661428     ALLREACHES                              
     23     (1,9,6)               0.24837387     ALLREACHES                              
     24     (1,12,7)              2.55009907E-02 ALLREACHES                              
     25     (1,13,7)              2.80470223E-02 ALLREACHES                              
     26     (1,14,9)              2.6922030      ALLREACHES                              
     27     (1,13,8)              2.6824902      ALLREACHES                              
     28     (1,13,7)              2.6727412      ALLREACHES                              
     29     (1,13,6)             -1.3741324      ALLREACHES                              
     30     (1,13,2)             -3.0028338      ALLREACHES                              
     31     (1,13,1)             -1.3226736      ALLREACHES                              
 ----------------------------------------------------------------------------------------




 LAK PACKAGE (LAK-1) FLOW RATES   PERIOD      5   STEP       15
 -----------------------------------------------
   NUMBER   CELLID                    RATE      
 -----------------------------------------------
     1      (1,9,7)               8.39020420E-03
     2      (1,10,6)              1.08099861E-02
     3      (2,10,7)              1.0269522     
     4      (1,9,8)               6.00792297E-03
     5      (1,10,9)              1.05154843E-04
     6      (2,10,8)              1.0073852     
     7      (1,11,6)              1.18088732E-02
     8      (1,12,7)              1.12483038E-02
     9      (2,11,7)              1.0296190     
     10     (1,11,9)              2.62776634E-03
     11     (1,12,8)              1.10142739E-02
     12     (2,11,8)              1.0068987     
     13     (1,10,3)             -3.53667439E-04
     14     (1,11,2)             -9.40074943E-04
     15     (2,11,3)             -0.59375253    
     16     (1,10,4)             -1.00911490E-03
     17     (2,11,4)             -0.61602275    
     18     (1,10,5)             -2.76055499E-03
     19     (1,11,6)             -3.99556430E-03
     20     (2,11,5)             -0.64575325    
     21     (1,12,2)             -3.55791262E-03
     22     (2,12,3)             -0.56429663    
     23     (2,12,4)             -0.59749046    
     24     (1,12,6)             -5.40829085E-03
     25     (2,12,5)             -0.63346652    
     26     (1,13,2)             -9.29065887E-04
     27     (2,13,3)             -0.54848778    
     28     (2,13,4)             -0.58758219    
     29     (1,13,6)             -5.79073669E-03
     30     (2,13,5)             -0.62548095    
     31     (1,14,2)             -3.34128794E-03
     32     (1,15,3)              0.0000000     
     33     (2,14,3)             -0.55330757    
     34     (1,15,4)              0.0000000     
     35     (2,14,4)             -0.58432878    
     36     (1,14,6)             -2.50032558E-03
     37     (1,15,5)              0.0000000     
     38     (2,14,5)             -0.61742294    
 -----------------------------------------------




 SFR-1 PACKAGE - SUMMARY OF FLOWS FOR EACH CONTROL VOLUME   PERIOD      5   STEP       15
 --------------------------------------------------------------------------------------------------------------------------------------------------------------------------------------------------------
                                                                                                                                                                                               PERCENT   
   NUMBER   CELLID                  INFLOW      OUTFLOW        GWF        RAINFALL   EVAPORATION     RUNOFF     EXT INFLOW  EXT OUTFLOW    STORAGE      FROM MVR      TO MVR      IN - OUT    DIFFERENCE 
 --------------------------------------------------------------------------------------------------------------------------------------------------------------------------------------------------------
     1      (1,1,1)               0.0000      -24.771      -0.22868      0.0000       0.0000       0.0000       25.000       0.0000       0.0000       0.0000       0.0000       0.0000       0.0000     
     2      (1,2,2)               24.771      -24.416      -0.35500      0.0000       0.0000       0.0000       0.0000       0.0000       0.0000       0.0000       0.0000       0.0000       0.0000     
     3      (1,3,3)               24.416      -24.113      -0.30357      0.0000       0.0000       0.0000       0.0000       0.0000       0.0000       0.0000       0.0000       0.0000       0.0000     
     4      (1,3,4)               24.113      -23.833      -0.28022      0.0000       0.0000       0.0000       0.0000       0.0000       0.0000       0.0000       0.0000       0.0000       0.0000     
     5      (1,4,5)               13.833      -13.533      -0.29961      0.0000       0.0000       0.0000       0.0000       0.0000       0.0000       0.0000       0.0000       0.0000       0.0000     
     6      (1,5,6)               13.533      -13.303      -0.22988      0.0000       0.0000       0.0000       0.0000       0.0000       0.0000       0.0000       0.0000       0.0000       0.0000     
     7      (1,6,6)               13.303      -13.074      -0.22937      0.0000       0.0000       0.0000       0.0000       0.0000       0.0000       0.0000       0.0000       0.0000       0.0000     
     8      (1,7,6)               13.074      -12.845      -0.22885      0.0000       0.0000       0.0000       0.0000       0.0000       0.0000       0.0000       0.0000       0.0000       0.0000     
     9      (1,8,6)               12.845      -12.616      -0.22833      0.0000       0.0000       0.0000       0.0000       0.0000       0.0000       0.0000       0.0000       0.0000       0.0000     
     10     (1,3,5)               10.000      -9.9788      -2.12214E-02  0.0000       0.0000       0.0000       0.0000       0.0000       0.0000       0.0000       0.0000       0.0000       0.0000     
     11     (1,3,6)               9.9788      -9.9589      -1.99133E-02  0.0000       0.0000       0.0000       0.0000       0.0000       0.0000       0.0000       0.0000       0.0000       0.0000     
     12     (1,3,7)               9.9589      -9.9421      -1.67956E-02  0.0000       0.0000       0.0000       0.0000       0.0000       0.0000       0.0000       0.0000       0.0000       0.0000     
     13     (1,4,8)               9.9421      -9.9213      -2.07205E-02  0.0000       0.0000       0.0000       0.0000       0.0000       0.0000       0.0000       0.0000       0.0000       0.0000     
     14     (1,5,8)               9.9213      -9.9056      -1.57906E-02  0.0000       0.0000       0.0000       0.0000       0.0000       0.0000       0.0000       0.0000       0.0000       0.0000     
     15     (1,6,8)               9.9056      -9.8996      -5.93648E-03  0.0000       0.0000       0.0000       0.0000       0.0000       0.0000       0.0000       0.0000       0.0000       0.0000     
     16     (1,5,10)              0.0000      -9.9091      -9.09198E-02  0.0000       0.0000       0.0000       10.000       0.0000       0.0000       0.0000       0.0000       0.0000       0.0000     
     17     (1,5,9)               9.9091      -9.7275      -0.18158      0.0000       0.0000       0.0000       0.0000       0.0000       0.0000       0.0000       0.0000       0.0000       0.0000     
     18     (1,6,8)               9.7275      -9.6006      -0.12690      0.0000       0.0000       0.0000       0.0000       0.0000       0.0000       0.0000       0.0000       0.0000       0.0000     
     19     (1,6,8)               19.500      -19.329      -0.17138      0.0000       0.0000       0.0000       0.0000       0.0000       0.0000       0.0000       0.0000       0.0000       0.0000     
     20     (1,7,7)               19.329      -19.115      -0.21385      0.0000       0.0000       0.0000       0.0000       0.0000       0.0000       0.0000       0.0000       0.0000       0.0000     
     21     (1,8,7)               19.115      -18.966      -0.14944      0.0000       0.0000       0.0000       0.0000       0.0000       0.0000       0.0000       0.0000       0.0000       0.0000     
     22     (1,8,6)               18.966      -18.859      -0.10661      0.0000       0.0000       0.0000       0.0000       0.0000       0.0000       0.0000       0.0000       0.0000       0.0000     
     23     (1,9,6)               31.475       0.0000      -0.24837      0.0000       0.0000       0.0000       0.0000       0.0000       0.0000       0.0000      -31.227       0.0000       0.0000     
     24     (1,12,7)              0.0000      -32.580      -2.55010E-02  0.0000       0.0000       0.0000       0.0000       0.0000       0.0000       32.606       0.0000       0.0000       0.0000     
     25     (1,13,7)              32.580      -32.552      -2.80470E-02  0.0000       0.0000       0.0000       0.0000       0.0000       0.0000       0.0000       0.0000       0.0000       0.0000     
     26     (1,14,9)              0.0000      -147.31      -2.6922       0.0000       0.0000       0.0000       150.00       0.0000       0.0000       0.0000       0.0000       0.0000       0.0000     
     27     (1,13,8)              147.31      -144.63      -2.6825       0.0000       0.0000       0.0000       0.0000       0.0000       0.0000       0.0000       0.0000       0.0000       0.0000     
     28     (1,13,7)              144.63      -141.95      -2.6727       0.0000       0.0000       0.0000       0.0000       0.0000       0.0000       0.0000       0.0000       0.0000       0.0000     
     29     (1,13,6)              174.50       0.0000       1.3741       0.0000       0.0000       0.0000       0.0000      -2.58325E-09  0.0000       0.0000      -175.88       0.0000       0.0000     
     30     (1,13,2)              0.0000      -189.29       3.0028       0.0000       0.0000       0.0000       0.0000       0.0000       0.0000       186.29       0.0000       0.0000       0.0000     
     31     (1,13,1)              189.29       0.0000       1.3227       0.0000       0.0000       0.0000       0.0000      -196.73       0.0000       6.1127       0.0000       0.0000       0.0000     
 --------------------------------------------------------------------------------------------------------------------------------------------------------------------------------------------------------



 LAK-1 PACKAGE - SUMMARY OF FLOWS FOR EACH CONTROL VOLUME   PERIOD      5   STEP       15
 -----------------------------------------------------------------------------------------------------------------------------------------------------------------------------------
                                                                                                                                                                          PERCENT   
   NUMBER       GWF        RAINFALL   EVAPORATION     RUNOFF     EXT INFLOW   WITHDRAWAL  EXT OUTFLOW    STORAGE      CONSTANT     FROM MVR      TO MVR      IN - OUT    DIFFERENCE 
 -----------------------------------------------------------------------------------------------------------------------------------------------------------------------------------
     1      -4.1329       5.0000      -1.0000       1.5000       0.0000       0.0000       0.0000       1.13290E-02  0.0000       31.227      -32.606       1.04664E-08  2.77340E-08
     2       7.1980       3.6000      -3.3000       3.0000       0.0000      -0.12000     -8.24603E-08  3.28055E-02  0.0000       175.88      -186.29       4.09085E-07  2.15637E-07
 -----------------------------------------------------------------------------------------------------------------------------------------------------------------------------------



 WATER MOVER PACKAGE (MVR) FLOW RATES   PERIOD      5   STEP       15
 --------------------------------------------------------------------------------------------------------------------------
                                               PROVIDER  AVAILABLE   PROVIDED                                     RECEIVER 
   NUMBER           PROVIDER LOCATION             ID        RATE       RATE            RECEIVER LOCATION             ID    
 --------------------------------------------------------------------------------------------------------------------------
     1                  E13/SFR-1                 23      31.2       31.2                  E13/LAK-1                 1     
     2                  E13/LAK-1                 1       32.6       32.6                  E13/SFR-1                 24    
     3                  E13/SFR-1                 29      176.       176.                  E13/LAK-1                 2     
     4                  E13/LAK-1                 2       186.       186.                  E13/SFR-1                 30    
     5                  E13/UZF-1                 1       0.00       0.00                  E13/SFR-1                 1     
     6                  E13/UZF-1                 2       0.00       0.00                  E13/SFR-1                 2     
     7                  E13/UZF-1                 3       0.00       0.00                  E13/SFR-1                 2     
     8                  E13/UZF-1                 4       0.00       0.00                  E13/SFR-1                 2     
     9                  E13/UZF-1                 5       0.00       0.00                  E13/SFR-1                 3     
     10                 E13/UZF-1                 6       0.00       0.00                  E13/SFR-1                 11    
     11                 E13/UZF-1                 7       0.00       0.00                  E13/SFR-1                 12    
     12                 E13/UZF-1                 8       0.00       0.00                  E13/SFR-1                 12    
     13                 E13/UZF-1                 9       0.00       0.00                  E13/SFR-1                 2     
     14                 E13/UZF-1                 10      0.00       0.00                  E13/SFR-1                 3     
     15                 E13/UZF-1                 11      0.00       0.00                  E13/SFR-1                 4     
     16                 E13/UZF-1                 12      0.00       0.00                  E13/SFR-1                 10    
     17                 E13/UZF-1                 13      0.00       0.00                  E13/SFR-1                 11    
     18                 E13/UZF-1                 14      0.00       0.00                  E13/SFR-1                 12    
     19                 E13/UZF-1                 15      0.00       0.00                  E13/SFR-1                 13    
     20                 E13/UZF-1                 16      0.00       0.00                  E13/LAK-1                 2     
     21                 E13/UZF-1                 17      0.00       0.00                  E13/LAK-1                 2     
     22                 E13/UZF-1                 18      0.00       0.00                  E13/SFR-1                 3     
     23                 E13/UZF-1                 19      0.00       0.00                  E13/SFR-1                 4     
     24                 E13/UZF-1                 20      0.00       0.00                  E13/SFR-1                 5     
     25                 E13/UZF-1                 21      0.00       0.00                  E13/SFR-1                 6     
     26                 E13/UZF-1                 22      0.00       0.00                  E13/SFR-1                 6     
     27                 E13/UZF-1                 23      0.00       0.00                  E13/SFR-1                 13    
     28                 E13/UZF-1                 24      0.00       0.00                  E13/SFR-1                 17    
     29                 E13/UZF-1                 25      0.00       0.00                  E13/LAK-1                 2     
     30                 E13/UZF-1                 26      0.00       0.00                  E13/LAK-1                 2     
     31                 E13/UZF-1                 27      0.00       0.00                  E13/LAK-1                 2     
     32                 E13/UZF-1                 28      0.00       0.00                  E13/LAK-1                 2     
     33                 E13/UZF-1                 29      0.00       0.00                  E13/SFR-1                 5     
     34                 E13/UZF-1                 30      0.00       0.00                  E13/SFR-1                 6     
     35                 E13/UZF-1                 31      0.00       0.00                  E13/SFR-1                 6     
     36                 E13/UZF-1                 32      0.00       0.00                  E13/SFR-1                 14    
     37                 E13/UZF-1                 33      0.00       0.00                  E13/SFR-1                 17    
     38                 E13/UZF-1                 34      0.00       0.00                  E13/SFR-1                 16    
     39                 E13/UZF-1                 35      0.00       0.00                  E13/LAK-1                 2     
     40                 E13/UZF-1                 36      0.00       0.00                  E13/LAK-1                 2     
     41                 E13/UZF-1                 37      0.00       0.00                  E13/LAK-1                 2     
     42                 E13/UZF-1                 38      0.00       0.00                  E13/LAK-1                 2     
     43                 E13/UZF-1                 39      0.00       0.00                  E13/LAK-1                 2     
     44                 E13/UZF-1                 40      0.00       0.00                  E13/SFR-1                 7     
     45                 E13/UZF-1                 41      0.00       0.00                  E13/SFR-1                 7     
     46                 E13/UZF-1                 42      0.00       0.00                  E13/SFR-1                 19    
     47                 E13/UZF-1                 43      0.00       0.00                  E13/SFR-1                 17    
     48                 E13/UZF-1                 44      0.00       0.00                  E13/SFR-1                 16    
     49                 E13/UZF-1                 45      0.00       0.00                  E13/LAK-1                 2     
     50                 E13/UZF-1                 46      0.00       0.00                  E13/LAK-1                 2     
     51                 E13/UZF-1                 47      0.00       0.00                  E13/LAK-1                 2     
     52                 E13/UZF-1                 48      0.00       0.00                  E13/LAK-1                 2     
     53                 E13/UZF-1                 49      0.00       0.00                  E13/LAK-1                 2     
     54                 E13/UZF-1                 50      0.00       0.00                  E13/SFR-1                 8     
     55                 E13/UZF-1                 51      0.00       0.00                  E13/SFR-1                 20    
     56                 E13/UZF-1                 52      0.00       0.00                  E13/SFR-1                 20    
     57                 E13/UZF-1                 53      0.00       0.00                  E13/SFR-1                 20    
     58                 E13/UZF-1                 54      0.00       0.00                  E13/LAK-1                 2     
     59                 E13/UZF-1                 55      0.00       0.00                  E13/LAK-1                 2     
     60                 E13/UZF-1                 56      0.00       0.00                  E13/LAK-1                 2     
     61                 E13/UZF-1                 57      0.00       0.00                  E13/LAK-1                 2     
     62                 E13/UZF-1                 58      0.00       0.00                  E13/SFR-1                 9     
     63                 E13/UZF-1                 59      0.00       0.00                  E13/SFR-1                 21    
     64                 E13/UZF-1                 60      0.00       0.00                  E13/SFR-1                 21    
     65                 E13/UZF-1                 61      0.00       0.00                  E13/SFR-1                 21    
     66                 E13/UZF-1                 62      0.00       0.00                  E13/LAK-1                 2     
     67                 E13/UZF-1                 63      0.00       0.00                  E13/LAK-1                 2     
     68                 E13/UZF-1                 64      0.00       0.00                  E13/LAK-1                 2     
     69                 E13/UZF-1                 65      0.00       0.00                  E13/LAK-1                 2     
     70                 E13/UZF-1                 66      0.00       0.00                  E13/SFR-1                 23    
     71                 E13/UZF-1                 67      0.00       0.00                  E13/LAK-1                 1     
     72                 E13/UZF-1                 68      0.00       0.00                  E13/LAK-1                 1     
     73                 E13/UZF-1                 69      0.00       0.00                  E13/LAK-1                 1     
     74                 E13/UZF-1                 70      0.00       0.00                  E13/LAK-1                 2     
     75                 E13/UZF-1                 71      0.00       0.00                  E13/LAK-1                 2     
     76                 E13/UZF-1                 72      0.00       0.00                  E13/LAK-1                 2     
     77                 E13/UZF-1                 73      0.00       0.00                  E13/LAK-1                 2     
     78                 E13/UZF-1                 74      0.00       0.00                  E13/LAK-1                 1     
     79                 E13/UZF-1                 75      0.00       0.00                  E13/LAK-1                 1     
     80                 E13/UZF-1                 76      0.00       0.00                  E13/LAK-1                 1     
     81                 E13/UZF-1                 77      0.00       0.00                  E13/LAK-1                 2     
     82                 E13/UZF-1                 78      0.00       0.00                  E13/SFR-1                 9     
     83                 E13/UZF-1                 79      0.00       0.00                  E13/LAK-1                 1     
     84                 E13/UZF-1                 80      0.00       0.00                  E13/SFR-1                 31    
     85                 E13/UZF-1                 81      0.00       0.00                  E13/SFR-1                 30    
     86                 E13/UZF-1                 82      0.00       0.00                  E13/SFR-1                 9     
     87                 E13/UZF-1                 83      0.00       0.00                  E13/SFR-1                 24    
     88                 E13/UZF-1                 84      0.00       0.00                  E13/LAK-1                 1     
     89                 E13/UZF-1                 85      0.00       0.00                  E13/LAK-1                 1     
     90                 E13/UZF-1                 86      6.11       6.11                  E13/SFR-1                 31    
     91                 E13/UZF-1                 87      0.00       0.00                  E13/SFR-1                 30    
     92                 E13/UZF-1                 88      0.00       0.00                  E13/SFR-1                 29    
     93                 E13/UZF-1                 89      0.00       0.00                  E13/SFR-1                 28    
     94                 E13/UZF-1                 90      0.00       0.00                  E13/SFR-1                 27    
     95                 E13/UZF-1                 91      0.00       0.00                  E13/SFR-1                 26    
     96                 E13/UZF-1                 92      0.00       0.00                  E13/SFR-1                 30    
     97                 E13/UZF-1                 93      0.00       0.00                  E13/LAK-1                 2     
     98                 E13/UZF-1                 94      0.00       0.00                  E13/SFR-1                 28    
     99                 E13/UZF-1                 95      0.00       0.00                  E13/SFR-1                 27    
    100                 E13/UZF-1                 96      0.00       0.00                  E13/SFR-1                 26    
    101                 E13/UZF-1                 97      0.00       0.00                  E13/LAK-1                 2     
    102                 E13/UZF-1                 98      0.00       0.00                  E13/LAK-1                 2     
    103                 E13/UZF-1                 99      0.00       0.00                  E13/LAK-1                 2     
    104                 E13/UZF-1                100      0.00       0.00                  E13/LAK-1                 2     
    105                 E13/WEL-1                 1       1.70       1.70                  E13/UZF-1                 38    
    106                 E13/WEL-1                 2       1.70       1.70                  E13/UZF-1                 39    
    107                 E13/WEL-1                 3       1.70       1.70                  E13/UZF-1                 48    
    108                 E13/WEL-1                 4       1.70       1.70                  E13/UZF-1                 49    
    109                 E13/WEL-1                 5       1.70       1.70                  E13/UZF-1                 56    
    110                 E13/WEL-1                 6       1.70       1.70                  E13/UZF-1                 57    
    111                 E13/WEL-1                 7       1.70       1.70                  E13/UZF-1                 64    
    112                 E13/WEL-1                 8       1.70       1.70                  E13/UZF-1                 65    
    113                 E13/WEL-1                 9       1.70       1.70                  E13/UZF-1                 72    
    114                 E13/WEL-1                 10      1.70       1.70                  E13/UZF-1                 73    
 --------------------------------------------------------------------------------------------------------------------------



 SFR PACKAGE (SFR-1) STAGES FOR EACH CONTROL VOLUME   PERIOD      5   STEP       15
 ------------------------------------------------------------------------------------------------------------------------------------------------------
                                                                                                                               STREAMBED    STREAMBED  
 NAME                                       NUMBER   CELLID                  STAGE        DEPTH        WIDTH       GWF HEAD   CONDUCTANCE    GRADIENT  
 ------------------------------------------------------------------------------------------------------------------------------------------------------
 ALLREACHES                                   1      (1,1,1)               1094.3       1.2349       12.000       1019.4       5.40000E-02  1.4116     
 ALLREACHES                                   2      (1,2,2)               1089.3       1.2262       12.000       1019.7       8.40000E-02  1.4087     
 ALLREACHES                                   3      (1,3,3)               1083.6       1.2163       12.000       1019.3       7.20000E-02  1.4054     
 ALLREACHES                                   4      (1,3,4)               1078.6       1.2075       12.000       1019.2       6.66000E-02  1.4025     
 ALLREACHES                                   5      (1,4,5)               1072.8       0.84113      12.000       1019.1       7.80000E-02  1.2804     
 ALLREACHES                                   6      (1,5,6)               1067.3       0.83133      12.000       1018.8       6.00000E-02  1.2771     
 ALLREACHES                                   7      (1,6,6)               1062.6       0.82276      12.000       1018.6       6.00000E-02  1.2743     
 ALLREACHES                                   8      (1,7,6)               1057.9       0.81415      12.000       1018.6       6.00000E-02  1.2714     
 ALLREACHES                                   9      (1,8,6)               1053.2       0.80551      12.000       1018.6       6.00000E-02  1.2685     
 ALLREACHES                                   10     (1,3,5)               1074.6       0.93630      9.6364       1018.4       7.22727E-03  1.4681     
 ALLREACHES                                   11     (1,3,6)               1071.9       0.98022      8.9091       1018.4       6.68182E-03  1.4901     
 ALLREACHES                                   12     (1,3,7)               1069.3       1.0277       8.2182       1018.4       5.54727E-03  1.5139     
 ALLREACHES                                   13     (1,4,8)               1066.5       1.0884       7.4545       1018.4       6.70909E-03  1.5442     
 ALLREACHES                                   14     (1,5,8)               1063.6       1.1639       6.6545       1018.5       4.99091E-03  1.5819     
 ALLREACHES                                   15     (1,6,8)               1061.8       1.2200       6.1455       1019.1       1.84364E-03  1.6100     
 ALLREACHES                                   16     (1,5,10)              1078.4       0.63679      10.000       1018.7       2.50000E-02  1.2123     
 ALLREACHES                                   17     (1,5,9)               1071.5       0.63155      10.000       1018.9       5.00000E-02  1.2105     
 ALLREACHES                                   18     (1,6,8)               1063.8       0.62558      10.000       1019.1       3.50000E-02  1.2085     
 ALLREACHES                                   19     (1,6,8)               1060.0       1.2846       10.000       1019.1       4.00000E-02  1.4282     
 ALLREACHES                                   20     (1,7,7)               1056.9       1.2770       10.000       1018.8       5.00000E-02  1.4257     
 ALLREACHES                                   21     (1,8,7)               1054.1       1.2697       10.000       1018.5       3.50000E-02  1.4232     
 ALLREACHES                                   22     (1,8,6)               1052.1       1.2646       10.000       1018.6       2.50000E-02  1.4215     
 ALLREACHES                                   23     (1,9,6)               1046.6       1.1396       12.000       1018.0       6.00000E-02  1.3799     
 ALLREACHES                                   24     (1,12,7)              1037.7       1.2502       12.000       1018.7       6.00000E-03  1.4167     
 ALLREACHES                                   25     (1,13,7)              1030.2       1.2495       12.000       1021.5       6.60000E-03  1.4165     
 ALLREACHES                                   26     (1,14,9)              1034.8       1.4870       60.000       1026.3       0.60000      1.4957     
 ALLREACHES                                   27     (1,13,8)              1031.5       1.4708       60.000       1023.4       0.60000      1.4903     
 ALLREACHES                                   28     (1,13,7)              1028.1       1.4546       60.000       1021.5       0.60000      1.4849     
 ALLREACHES                                   29     (1,13,6)              1013.9       0.90766      60.000       1016.2       0.60000     -0.76341    
 ALLREACHES                                   30     (1,13,2)              998.29       1.4168       60.000       1003.3       0.60000     -1.6682     
 ALLREACHES                                   31     (1,13,1)              993.33       1.4540       60.000       997.00       0.36000     -1.2247     
 ------------------------------------------------------------------------------------------------------------------------------------------------------



 LAK PACKAGE (LAK-1) STAGES FOR EACH CONTROL VOLUME   PERIOD      5   STEP       15
 --------------------------------------------------------------
   NUMBER      STAGE     SURFACE AREA WETTED AREA     VOLUME   
 --------------------------------------------------------------
     1       1041.3       1.00000E+08  1.01383E+08  4.27509E+09
     2       1001.4       3.00000E+08  3.01378E+08  5.29801E+09
 --------------------------------------------------------------



 HEAD WILL BE SAVED ON UNIT 1026 AT END OF TIME STEP   15, STRESS PERIOD    5


  SFR-1 BUDGET FOR ENTIRE MODEL AT END OF TIME STEP   15, STRESS PERIOD   5
  ------------------------------------------------------------------------------

     CUMULATIVE SFR-1      L**3       RATES FOR THIS TIME STEP      L**3/T
     ------------------                 ------------------------

           IN:                                      IN:
           ---                                      ---
                 GWF =    73528500.0727                   GWF =           5.6996
            RAINFALL =           0.0000              RAINFALL =           0.0000
         EVAPORATION =           0.0000           EVAPORATION =           0.0000
              RUNOFF =           0.0000                RUNOFF =           0.0000
          EXT-INFLOW =  2430900000.0000            EXT-INFLOW =         185.0000
         EXT-OUTFLOW =           0.0000           EXT-OUTFLOW =           0.0000
             STORAGE =           0.0000               STORAGE =           0.0000
            FROM-MVR =  2955726132.3509              FROM-MVR =         225.0077
              TO-MVR =           0.0000                TO-MVR =           0.0000

            TOTAL IN =  5460154632.4236              TOTAL IN =         415.7073

          OUT:                                     OUT:
          ----                                     ----
                 GWF =   156023388.7475                   GWF =          11.8739
            RAINFALL =           0.0000              RAINFALL =           0.0000
         EVAPORATION =           0.0000           EVAPORATION =           0.0000
              RUNOFF =           0.0000                RUNOFF =           0.0000
          EXT-INFLOW =           0.0000            EXT-INFLOW =           0.0000
         EXT-OUTFLOW =  2582456479.3800           EXT-OUTFLOW =         196.7277
             STORAGE =           0.0000               STORAGE =           0.0000
            FROM-MVR =           0.0000              FROM-MVR =           0.0000
              TO-MVR =  2721674764.2961                TO-MVR =         207.1057

           TOTAL OUT =  5460154632.4236             TOTAL OUT =         415.7073

            IN - OUT =       1.9073E-06              IN - OUT =       1.1369E-13

 PERCENT DISCREPANCY =           0.00     PERCENT DISCREPANCY =           0.00



  LAK-1 BUDGET FOR ENTIRE MODEL AT END OF TIME STEP   15, STRESS PERIOD   5
  ------------------------------------------------------------------------------

     CUMULATIVE LAK-1      L**3       RATES FOR THIS TIME STEP      L**3/T
     ------------------                 ------------------------

           IN:                                      IN:
           ---                                      ---
                 GWF =    95608905.4603                   GWF =           7.1980
            RAINFALL =   113004000.0000              RAINFALL =           8.6000
         EVAPORATION =           0.0000           EVAPORATION =           0.0000
              RUNOFF =    59130000.0000                RUNOFF =           4.5000
          EXT-INFLOW =           0.0000            EXT-INFLOW =           0.0000
          WITHDRAWAL =           0.0000            WITHDRAWAL =           0.0000
         EXT-OUTFLOW =           0.0000           EXT-OUTFLOW =           0.0000
             STORAGE =      193486.9090               STORAGE =       4.4134E-02
            CONSTANT =           0.0000              CONSTANT =           0.0000
            FROM-MVR =  2721674764.2961              FROM-MVR =         207.1057
              TO-MVR =           0.0000                TO-MVR =           0.0000

            TOTAL IN =  2989611156.6653              TOTAL IN =         227.4478

          OUT:                                     OUT:
          ----                                     ----
                 GWF =    53981618.5460                   GWF =           4.1329
            RAINFALL =           0.0000              RAINFALL =           0.0000
         EVAPORATION =    56502000.0000           EVAPORATION =           4.3000
              RUNOFF =           0.0000                RUNOFF =           0.0000
          EXT-INFLOW =           0.0000            EXT-INFLOW =           0.0000
          WITHDRAWAL =     1576800.0000            WITHDRAWAL =           0.1200
         EXT-OUTFLOW =           1.0456           EXT-OUTFLOW =       8.2460E-08
             STORAGE =          64.9850               STORAGE =           0.0000
            CONSTANT =           0.0000              CONSTANT =           0.0000
            FROM-MVR =           0.0000              FROM-MVR =           0.0000
              TO-MVR =  2877550667.8072                TO-MVR =         218.8950

           TOTAL OUT =  2989611152.3838             TOTAL OUT =         227.4478

            IN - OUT =           4.2815              IN - OUT =       4.1955E-07

 PERCENT DISCREPANCY =           0.00     PERCENT DISCREPANCY =           0.00



  UZF-1 BUDGET FOR ENTIRE MODEL AT END OF TIME STEP   15, STRESS PERIOD   5
  ------------------------------------------------------------------------------

     CUMULATIVE UZF-1      L**3       RATES FOR THIS TIME STEP      L**3/T
     ------------------                 ------------------------

           IN:                                      IN:
           ---                                      ---
                 GWF =           0.0000                   GWF =           0.0000
        INFILTRATION =  1916620635.6000          INFILTRATION =         191.2500
             REJ-INF =           0.0000               REJ-INF =           0.0000
                UZET =           0.0000                  UZET =           0.0000
             STORAGE =     1444726.4198               STORAGE =       3.6404E-02
            FROM-MVR =    89352000.0000              FROM-MVR =          17.0000
      REJ-INF-TO-MVR =           0.0000        REJ-INF-TO-MVR =           0.0000

            TOTAL IN =  2007417362.0198              TOTAL IN =         208.2864

          OUT:                                     OUT:
          ----                                     ----
                 GWF =    14619935.6436                   GWF =           0.7885
        INFILTRATION =           0.0000          INFILTRATION =           0.0000
             REJ-INF =           6.2859               REJ-INF =       8.5520E-07
                UZET =   255750587.9335                  UZET =          24.3271
             STORAGE =  1730783393.3511               STORAGE =         182.5459
            FROM-MVR =           0.0000              FROM-MVR =           0.0000
      REJ-INF-TO-MVR =     6263438.8020        REJ-INF-TO-MVR =           0.6250

           TOTAL OUT =  2007417362.0160             TOTAL OUT =         208.2864

            IN - OUT =       3.8669E-03              IN - OUT =      -1.1084E-12

 PERCENT DISCREPANCY =           0.00     PERCENT DISCREPANCY =          -0.00



  WATER MOVER BUDGET FOR ENTIRE MODEL AT END OF TIME STEP   15, STRESS PERIOD   5
  ------------------------------------------------------------------------------

     CUMULATIVE WATER MOVER      L**3       RATES FOR THIS TIME STEP      L**3/T
     ------------------                 ------------------------

           IN:                                      IN:
           ---                                      ---
               UZF-1 =    78175464.5436                 UZF-1 =           6.1127
               SFR-1 =  2721674764.2961                 SFR-1 =         207.1057
               LAK-1 =  2877550667.8072                 LAK-1 =         218.8950
               WEL-1 =    89352000.0000                 WEL-1 =          17.0000

            TOTAL IN =  5766752896.6469              TOTAL IN =         449.1135

          OUT:                                     OUT:
          ----                                     ----
               UZF-1 =    89352000.0000                 UZF-1 =          17.0000
               SFR-1 =  2955726132.3509                 SFR-1 =         225.0077
               LAK-1 =  2721674764.2961                 LAK-1 =         207.1057
               WEL-1 =           0.0000                 WEL-1 =           0.0000

           TOTAL OUT =  5766752896.6469             TOTAL OUT =         449.1135

            IN - OUT =           0.0000              IN - OUT =           0.0000

 PERCENT DISCREPANCY =           0.00     PERCENT DISCREPANCY =           0.00



  VOLUME BUDGET FOR ENTIRE MODEL AT END OF TIME STEP   15, STRESS PERIOD   5
  ---------------------------------------------------------------------------------------------------

     CUMULATIVE VOLUME      L**3       RATES FOR THIS TIME STEP      L**3/T          PACKAGE NAME    
     ------------------                 ------------------------                     ----------------

           IN:                                      IN:
           ---                                      ---
              STO-SS =      439317.5671                STO-SS =       7.3304E-02     STORAGE                          
              STO-SY =   110270874.7797                STO-SY =          18.7772     STORAGE                          
                 WEL =           0.0000                   WEL =           0.0000     WEL-1                            
          WEL-TO-MVR =           0.0000            WEL-TO-MVR =           0.0000     WEL-1                            
                 GHB =     9345913.5289                   GHB =           0.7123     GHB_0                            
                 SFR =   156023388.7475                   SFR =          11.8739     SFR-1                            
                 LAK =    53981618.5460                   LAK =           4.1329     LAK-1                            
           UZF-GWRCH =    14619935.6436             UZF-GWRCH =           0.7885     UZF-1                            
             UZF-GWD =           0.0000               UZF-GWD =           0.0000     UZF-1                            
      UZF-GWD TO-MVR =           0.0000        UZF-GWD TO-MVR =           0.0000     UZF-1                            
            UZF-GWET =           0.0000              UZF-GWET =           0.0000     UZF-1                            

            TOTAL IN =   344681048.8128              TOTAL IN =          36.3580

          OUT:                                     OUT:
          ----                                     ----
              STO-SS =        1504.0501                STO-SS =       2.5891E-05     STORAGE                          
              STO-SY =     2552910.1812                STO-SY =           0.1050     STORAGE                          
                 WEL =           0.0000                   WEL =           0.0000     WEL-1                            
          WEL-TO-MVR =    89352000.0000            WEL-TO-MVR =          17.0000     WEL-1                            
                 GHB =     4495380.6796                   GHB =           0.3421     GHB_0                            
                 SFR =    73528646.0730                   SFR =           5.6996     SFR-1                            
                 LAK =    95608905.4603                   LAK =           7.1980     LAK-1                            
           UZF-GWRCH =           0.0000             UZF-GWRCH =           0.0000     UZF-1                            
             UZF-GWD =          55.4486               UZF-GWD =       7.5090E-06     UZF-1                            
      UZF-GWD TO-MVR =    71912025.7417        UZF-GWD TO-MVR =           5.4877     UZF-1                            
            UZF-GWET =     7227215.9088              UZF-GWET =           0.5252     UZF-1                            

           TOTAL OUT =   344678643.5433             TOTAL OUT =          36.3577

            IN - OUT =        2405.2695              IN - OUT =       2.4754E-04

 PERCENT DISCREPANCY =           0.00     PERCENT DISCREPANCY =           0.00




         TIME SUMMARY AT END OF TIME STEP   15 IN STRESS PERIOD    5
                    SECONDS     MINUTES      HOURS       DAYS        YEARS
                    -----------------------------------------------------------
   TIME STEP LENGTH 1.75200E+05  2920.0      48.667      2.0278     5.55175E-03
 STRESS PERIOD TIME 2.62800E+06  43800.      730.00      30.417     8.32763E-02
         TOTAL TIME 1.31400E+07 2.19000E+05  3650.0      152.08     0.41638    


end timestep


start timestep kper="6" kstp="1" mode="normal"


 OUTPUT CONTROL FOR STRESS PERIOD 6 IS REPEATED USING SETTINGS FROM A PREVIOUS STRESS PERIOD.


 STRESS PERIOD 6 IS TRANSIENT


 REUSING MVRS FROM LAST STRESS PERIOD
 ----------------------------------
  WEL NO.    LAYER    ROW     COL  
 ----------------------------------
     1         1       4       8   
     2         1       4       9   
     3         1       5       8   
     4         1       5       9   
     5         1       6       6   
     6         1       6       7   
     7         1       7       4   
     8         1       7       5   
     9         1       8       2   
     10        1       8       3   
 ----------------------------------



 REUSING SFRS FROM LAST STRESS PERIOD

 REUSING LAKS FROM LAST STRESS PERIOD

end timestep


start timestep kper="6" kstp="2" mode="normal"


end timestep


start timestep kper="6" kstp="3" mode="normal"


end timestep


start timestep kper="6" kstp="4" mode="normal"


end timestep


start timestep kper="6" kstp="5" mode="normal"


end timestep


start timestep kper="6" kstp="6" mode="normal"


end timestep


start timestep kper="6" kstp="7" mode="normal"


end timestep


start timestep kper="6" kstp="8" mode="normal"


end timestep


start timestep kper="6" kstp="9" mode="normal"


end timestep


start timestep kper="6" kstp="10" mode="normal"


end timestep


start timestep kper="6" kstp="11" mode="normal"


end timestep


start timestep kper="6" kstp="12" mode="normal"


end timestep


start timestep kper="6" kstp="13" mode="normal"


end timestep


start timestep kper="6" kstp="14" mode="normal"


end timestep


start timestep kper="6" kstp="15" mode="normal"

 UBDSV1 SAVING           STO-SS ON UNIT   1025 AT TIME STEP     15, STRESS PERIOD      6
 UBDSV1 SAVING           STO-SY ON UNIT   1025 AT TIME STEP     15, STRESS PERIOD      6
 UBDSV1 SAVING     FLOW-JA-FACE ON UNIT   1025 AT TIME STEP     15, STRESS PERIOD      6
 UBDSV06 SAVING       DATA-SPDIS IN MODEL E13              PACKAGE NPF             CONNECTED TO MODEL E13              PACKAGE NPF              ON UNIT   1025 AT TIME STEP     15, STRESS PERIOD      6
 UBDSV06 SAVING              WEL IN MODEL E13              PACKAGE E13             CONNECTED TO MODEL E13              PACKAGE WEL-1            ON UNIT   1025 AT TIME STEP     15, STRESS PERIOD      6
 UBDSV06 SAVING       WEL-TO-MVR IN MODEL E13              PACKAGE E13             CONNECTED TO MODEL E13              PACKAGE WEL-1            ON UNIT   1025 AT TIME STEP     15, STRESS PERIOD      6
 UBDSV06 SAVING              GHB IN MODEL E13              PACKAGE E13             CONNECTED TO MODEL E13              PACKAGE GHB_0            ON UNIT   1025 AT TIME STEP     15, STRESS PERIOD      6
 UBDSV06 SAVING              SFR IN MODEL E13              PACKAGE E13             CONNECTED TO MODEL E13              PACKAGE SFR-1            ON UNIT   1025 AT TIME STEP     15, STRESS PERIOD      6
 UBDSV06 SAVING              LAK IN MODEL E13              PACKAGE E13             CONNECTED TO MODEL E13              PACKAGE LAK-1            ON UNIT   1025 AT TIME STEP     15, STRESS PERIOD      6
 UBDSV06 SAVING        UZF-GWRCH IN MODEL E13              PACKAGE E13             CONNECTED TO MODEL E13              PACKAGE UZF-1            ON UNIT   1025 AT TIME STEP     15, STRESS PERIOD      6
 UBDSV06 SAVING          UZF-GWD IN MODEL E13              PACKAGE E13             CONNECTED TO MODEL E13              PACKAGE UZF-1            ON UNIT   1025 AT TIME STEP     15, STRESS PERIOD      6
 UBDSV06 SAVING   UZF-GWD TO-MVR IN MODEL E13              PACKAGE E13             CONNECTED TO MODEL E13              PACKAGE UZF-1            ON UNIT   1025 AT TIME STEP     15, STRESS PERIOD      6
 UBDSV06 SAVING         UZF-GWET IN MODEL E13              PACKAGE E13             CONNECTED TO MODEL E13              PACKAGE UZF-1            ON UNIT   1025 AT TIME STEP     15, STRESS PERIOD      6
 UBDSV06 SAVING     FLOW-JA-FACE IN MODEL E13              PACKAGE SFR-1           CONNECTED TO MODEL E13              PACKAGE SFR-1            ON UNIT   1017 AT TIME STEP     15, STRESS PERIOD      6
 UBDSV06 SAVING              GWF IN MODEL E13              PACKAGE SFR-1           CONNECTED TO MODEL E13              PACKAGE E13              ON UNIT   1017 AT TIME STEP     15, STRESS PERIOD      6
 UBDSV06 SAVING         RAINFALL IN MODEL E13              PACKAGE SFR-1           CONNECTED TO MODEL E13              PACKAGE SFR-1            ON UNIT   1017 AT TIME STEP     15, STRESS PERIOD      6
 UBDSV06 SAVING      EVAPORATION IN MODEL E13              PACKAGE SFR-1           CONNECTED TO MODEL E13              PACKAGE SFR-1            ON UNIT   1017 AT TIME STEP     15, STRESS PERIOD      6
 UBDSV06 SAVING           RUNOFF IN MODEL E13              PACKAGE SFR-1           CONNECTED TO MODEL E13              PACKAGE SFR-1            ON UNIT   1017 AT TIME STEP     15, STRESS PERIOD      6
 UBDSV06 SAVING       EXT-INFLOW IN MODEL E13              PACKAGE SFR-1           CONNECTED TO MODEL E13              PACKAGE SFR-1            ON UNIT   1017 AT TIME STEP     15, STRESS PERIOD      6
 UBDSV06 SAVING      EXT-OUTFLOW IN MODEL E13              PACKAGE SFR-1           CONNECTED TO MODEL E13              PACKAGE SFR-1            ON UNIT   1017 AT TIME STEP     15, STRESS PERIOD      6
 UBDSV06 SAVING          STORAGE IN MODEL E13              PACKAGE SFR-1           CONNECTED TO MODEL E13              PACKAGE SFR-1            ON UNIT   1017 AT TIME STEP     15, STRESS PERIOD      6
 UBDSV06 SAVING         FROM-MVR IN MODEL E13              PACKAGE SFR-1           CONNECTED TO MODEL E13              PACKAGE SFR-1            ON UNIT   1017 AT TIME STEP     15, STRESS PERIOD      6
 UBDSV06 SAVING           TO-MVR IN MODEL E13              PACKAGE SFR-1           CONNECTED TO MODEL E13              PACKAGE SFR-1            ON UNIT   1017 AT TIME STEP     15, STRESS PERIOD      6
 UBDSV06 SAVING              GWF IN MODEL E13              PACKAGE LAK-1           CONNECTED TO MODEL E13              PACKAGE E13              ON UNIT   1019 AT TIME STEP     15, STRESS PERIOD      6
 UBDSV06 SAVING         RAINFALL IN MODEL E13              PACKAGE LAK-1           CONNECTED TO MODEL E13              PACKAGE LAK-1            ON UNIT   1019 AT TIME STEP     15, STRESS PERIOD      6
 UBDSV06 SAVING      EVAPORATION IN MODEL E13              PACKAGE LAK-1           CONNECTED TO MODEL E13              PACKAGE LAK-1            ON UNIT   1019 AT TIME STEP     15, STRESS PERIOD      6
 UBDSV06 SAVING           RUNOFF IN MODEL E13              PACKAGE LAK-1           CONNECTED TO MODEL E13              PACKAGE LAK-1            ON UNIT   1019 AT TIME STEP     15, STRESS PERIOD      6
 UBDSV06 SAVING       EXT-INFLOW IN MODEL E13              PACKAGE LAK-1           CONNECTED TO MODEL E13              PACKAGE LAK-1            ON UNIT   1019 AT TIME STEP     15, STRESS PERIOD      6
 UBDSV06 SAVING       WITHDRAWAL IN MODEL E13              PACKAGE LAK-1           CONNECTED TO MODEL E13              PACKAGE LAK-1            ON UNIT   1019 AT TIME STEP     15, STRESS PERIOD      6
 UBDSV06 SAVING      EXT-OUTFLOW IN MODEL E13              PACKAGE LAK-1           CONNECTED TO MODEL E13              PACKAGE LAK-1            ON UNIT   1019 AT TIME STEP     15, STRESS PERIOD      6
 UBDSV06 SAVING          STORAGE IN MODEL E13              PACKAGE LAK-1           CONNECTED TO MODEL E13              PACKAGE LAK-1            ON UNIT   1019 AT TIME STEP     15, STRESS PERIOD      6
 UBDSV06 SAVING         CONSTANT IN MODEL E13              PACKAGE LAK-1           CONNECTED TO MODEL E13              PACKAGE LAK-1            ON UNIT   1019 AT TIME STEP     15, STRESS PERIOD      6
 UBDSV06 SAVING         FROM-MVR IN MODEL E13              PACKAGE LAK-1           CONNECTED TO MODEL E13              PACKAGE LAK-1            ON UNIT   1019 AT TIME STEP     15, STRESS PERIOD      6
 UBDSV06 SAVING           TO-MVR IN MODEL E13              PACKAGE LAK-1           CONNECTED TO MODEL E13              PACKAGE LAK-1            ON UNIT   1019 AT TIME STEP     15, STRESS PERIOD      6
 UBDSV06 SAVING     FLOW-JA-FACE IN MODEL E13              PACKAGE UZF-1           CONNECTED TO MODEL E13              PACKAGE UZF-1            ON UNIT   1021 AT TIME STEP     15, STRESS PERIOD      6
 UBDSV06 SAVING              GWF IN MODEL E13              PACKAGE UZF-1           CONNECTED TO MODEL E13              PACKAGE E13              ON UNIT   1021 AT TIME STEP     15, STRESS PERIOD      6
 UBDSV06 SAVING     INFILTRATION IN MODEL E13              PACKAGE UZF-1           CONNECTED TO MODEL E13              PACKAGE UZF-1            ON UNIT   1021 AT TIME STEP     15, STRESS PERIOD      6
 UBDSV06 SAVING          REJ-INF IN MODEL E13              PACKAGE UZF-1           CONNECTED TO MODEL E13              PACKAGE UZF-1            ON UNIT   1021 AT TIME STEP     15, STRESS PERIOD      6
 UBDSV06 SAVING             UZET IN MODEL E13              PACKAGE UZF-1           CONNECTED TO MODEL E13              PACKAGE UZF-1            ON UNIT   1021 AT TIME STEP     15, STRESS PERIOD      6
 UBDSV06 SAVING          STORAGE IN MODEL E13              PACKAGE UZF-1           CONNECTED TO MODEL E13              PACKAGE UZF-1            ON UNIT   1021 AT TIME STEP     15, STRESS PERIOD      6
 UBDSV06 SAVING         FROM-MVR IN MODEL E13              PACKAGE UZF-1           CONNECTED TO MODEL E13              PACKAGE UZF-1            ON UNIT   1021 AT TIME STEP     15, STRESS PERIOD      6
 UBDSV06 SAVING   REJ-INF-TO-MVR IN MODEL E13              PACKAGE UZF-1           CONNECTED TO MODEL E13              PACKAGE UZF-1            ON UNIT   1021 AT TIME STEP     15, STRESS PERIOD      6
 UBDSV06 SAVING       MOVER-FLOW IN MODEL E13              PACKAGE UZF-1           CONNECTED TO MODEL E13              PACKAGE UZF-1            ON UNIT   1023 AT TIME STEP     15, STRESS PERIOD      6
 UBDSV06 SAVING       MOVER-FLOW IN MODEL E13              PACKAGE UZF-1           CONNECTED TO MODEL E13              PACKAGE SFR-1            ON UNIT   1023 AT TIME STEP     15, STRESS PERIOD      6
 UBDSV06 SAVING       MOVER-FLOW IN MODEL E13              PACKAGE UZF-1           CONNECTED TO MODEL E13              PACKAGE LAK-1            ON UNIT   1023 AT TIME STEP     15, STRESS PERIOD      6
 UBDSV06 SAVING       MOVER-FLOW IN MODEL E13              PACKAGE UZF-1           CONNECTED TO MODEL E13              PACKAGE WEL-1            ON UNIT   1023 AT TIME STEP     15, STRESS PERIOD      6
 UBDSV06 SAVING       MOVER-FLOW IN MODEL E13              PACKAGE SFR-1           CONNECTED TO MODEL E13              PACKAGE UZF-1            ON UNIT   1023 AT TIME STEP     15, STRESS PERIOD      6
 UBDSV06 SAVING       MOVER-FLOW IN MODEL E13              PACKAGE SFR-1           CONNECTED TO MODEL E13              PACKAGE SFR-1            ON UNIT   1023 AT TIME STEP     15, STRESS PERIOD      6
 UBDSV06 SAVING       MOVER-FLOW IN MODEL E13              PACKAGE SFR-1           CONNECTED TO MODEL E13              PACKAGE LAK-1            ON UNIT   1023 AT TIME STEP     15, STRESS PERIOD      6
 UBDSV06 SAVING       MOVER-FLOW IN MODEL E13              PACKAGE SFR-1           CONNECTED TO MODEL E13              PACKAGE WEL-1            ON UNIT   1023 AT TIME STEP     15, STRESS PERIOD      6
 UBDSV06 SAVING       MOVER-FLOW IN MODEL E13              PACKAGE LAK-1           CONNECTED TO MODEL E13              PACKAGE UZF-1            ON UNIT   1023 AT TIME STEP     15, STRESS PERIOD      6
 UBDSV06 SAVING       MOVER-FLOW IN MODEL E13              PACKAGE LAK-1           CONNECTED TO MODEL E13              PACKAGE SFR-1            ON UNIT   1023 AT TIME STEP     15, STRESS PERIOD      6
 UBDSV06 SAVING       MOVER-FLOW IN MODEL E13              PACKAGE LAK-1           CONNECTED TO MODEL E13              PACKAGE LAK-1            ON UNIT   1023 AT TIME STEP     15, STRESS PERIOD      6
 UBDSV06 SAVING       MOVER-FLOW IN MODEL E13              PACKAGE LAK-1           CONNECTED TO MODEL E13              PACKAGE WEL-1            ON UNIT   1023 AT TIME STEP     15, STRESS PERIOD      6
 UBDSV06 SAVING       MOVER-FLOW IN MODEL E13              PACKAGE WEL-1           CONNECTED TO MODEL E13              PACKAGE UZF-1            ON UNIT   1023 AT TIME STEP     15, STRESS PERIOD      6
 UBDSV06 SAVING       MOVER-FLOW IN MODEL E13              PACKAGE WEL-1           CONNECTED TO MODEL E13              PACKAGE SFR-1            ON UNIT   1023 AT TIME STEP     15, STRESS PERIOD      6
 UBDSV06 SAVING       MOVER-FLOW IN MODEL E13              PACKAGE WEL-1           CONNECTED TO MODEL E13              PACKAGE LAK-1            ON UNIT   1023 AT TIME STEP     15, STRESS PERIOD      6
 UBDSV06 SAVING       MOVER-FLOW IN MODEL E13              PACKAGE WEL-1           CONNECTED TO MODEL E13              PACKAGE WEL-1            ON UNIT   1023 AT TIME STEP     15, STRESS PERIOD      6

 WEL PACKAGE (WEL-1) FLOW RATES   PERIOD      6   STEP       15
 -----------------------------------------------
   NUMBER   CELLID                    RATE      
 -----------------------------------------------
     1      (1,6,4)               0.0000000     
     2      (1,6,5)               0.0000000     
     3      (1,7,4)               0.0000000     
     4      (1,7,5)               0.0000000     
     5      (1,8,4)               0.0000000     
     6      (1,8,5)               0.0000000     
     7      (1,9,4)               0.0000000     
     8      (1,9,5)               0.0000000     
     9      (1,10,4)              0.0000000     
     10     (1,10,5)              0.0000000     
 -----------------------------------------------




 WEL PACKAGE (WEL-1) FLOW RATES TO-MVR   PERIOD      6   STEP       15
 -----------------------------------------------
   NUMBER   CELLID                    RATE      
 -----------------------------------------------
     1      (1,6,4)               0.0000000     
     2      (1,6,5)               0.0000000     
     3      (1,7,4)               0.0000000     
     4      (1,7,5)               0.0000000     
     5      (1,8,4)               0.0000000     
     6      (1,8,5)               0.0000000     
     7      (1,9,4)               0.0000000     
     8      (1,9,5)               0.0000000     
     9      (1,10,4)              0.0000000     
     10     (1,10,5)              0.0000000     
 -----------------------------------------------




 SFR PACKAGE (SFR-1) FLOW RATES   PERIOD      6   STEP       15
 ----------------------------------------------------------------------------------------
   NUMBER   CELLID                    RATE       NAME                                    
 ----------------------------------------------------------------------------------------
     1      (1,1,1)               0.22868377     ALLREACHES                              
     2      (1,2,2)               0.35499870     ALLREACHES                              
     3      (1,3,3)               0.30357347     ALLREACHES                              
     4      (1,3,4)               0.28021936     ALLREACHES                              
     5      (1,4,5)               0.29960805     ALLREACHES                              
     6      (1,5,6)               0.22987955     ALLREACHES                              
     7      (1,6,6)               0.22936563     ALLREACHES                              
     8      (1,7,6)               0.22884928     ALLREACHES                              
     9      (1,8,6)               0.22833044     ALLREACHES                              
     10     (1,3,5)               2.12214188E-02 ALLREACHES                              
     11     (1,3,6)               1.99133007E-02 ALLREACHES                              
     12     (1,3,7)               1.67956407E-02 ALLREACHES                              
     13     (1,4,8)               2.07205450E-02 ALLREACHES                              
     14     (1,5,8)               1.57905563E-02 ALLREACHES                              
     15     (1,6,8)               5.93648362E-03 ALLREACHES                              
     16     (1,5,10)              9.09197693E-02 ALLREACHES                              
     17     (1,5,9)               0.18157734     ALLREACHES                              
     18     (1,6,8)               0.12689514     ALLREACHES                              
     19     (1,6,8)               0.17138468     ALLREACHES                              
     20     (1,7,7)               0.21384773     ALLREACHES                              
     21     (1,8,7)               0.14943953     ALLREACHES                              
     22     (1,8,6)               0.10661428     ALLREACHES                              
     23     (1,9,6)               0.24837387     ALLREACHES                              
     24     (1,12,7)              2.54997954E-02 ALLREACHES                              
     25     (1,13,7)              2.80457073E-02 ALLREACHES                              
     26     (1,14,9)              2.6922030      ALLREACHES                              
     27     (1,13,8)              2.6824902      ALLREACHES                              
     28     (1,13,7)              2.6727412      ALLREACHES                              
     29     (1,13,6)             -1.3656570      ALLREACHES                              
     30     (1,13,2)             -3.1236074      ALLREACHES                              
     31     (1,13,1)             -1.3219324      ALLREACHES                              
 ----------------------------------------------------------------------------------------




 LAK PACKAGE (LAK-1) FLOW RATES   PERIOD      6   STEP       15
 -----------------------------------------------
   NUMBER   CELLID                    RATE      
 -----------------------------------------------
     1      (1,9,7)               8.40356183E-03
     2      (1,10,6)              1.08457536E-02
     3      (2,10,7)              1.0268372     
     4      (1,9,8)               6.01899392E-03
     5      (1,10,9)              1.05141957E-04
     6      (2,10,8)              1.0082826     
     7      (1,11,6)              1.18269357E-02
     8      (1,12,7)              1.12582959E-02
     9      (2,11,7)              1.0297504     
     10     (1,11,9)              2.62770192E-03
     11     (1,12,8)              1.10293414E-02
     12     (2,11,8)              1.0077343     
     13     (1,10,3)             -3.43701840E-04
     14     (1,11,2)             -9.30173579E-04
     15     (2,11,3)             -0.59324231    
     16     (1,10,4)             -1.04570735E-03
     17     (2,11,4)             -0.61648816    
     18     (1,10,5)             -2.83417736E-03
     19     (1,11,6)             -3.98043442E-03
     20     (2,11,5)             -0.64651195    
     21     (1,12,2)             -3.54741304E-03
     22     (2,12,3)             -0.56380973    
     23     (2,12,4)             -0.59735977    
     24     (1,12,6)             -5.39615110E-03
     25     (2,12,5)             -0.63351966    
     26     (1,13,2)             -1.03253113E-03
     27     (2,13,3)             -0.54790061    
     28     (2,13,4)             -0.58702620    
     29     (1,13,6)             -5.78317285E-03
     30     (2,13,5)             -0.62508441    
     31     (1,14,2)             -3.33490207E-03
     32     (1,15,3)              0.0000000     
     33     (2,14,3)             -0.55226381    
     34     (1,15,4)              0.0000000     
     35     (2,14,4)             -0.58323417    
     36     (1,14,6)             -2.48931292E-03
     37     (1,15,5)              0.0000000     
     38     (2,14,5)             -0.61650012    
 -----------------------------------------------




 SFR-1 PACKAGE - SUMMARY OF FLOWS FOR EACH CONTROL VOLUME   PERIOD      6   STEP       15
 --------------------------------------------------------------------------------------------------------------------------------------------------------------------------------------------------------
                                                                                                                                                                                               PERCENT   
   NUMBER   CELLID                  INFLOW      OUTFLOW        GWF        RAINFALL   EVAPORATION     RUNOFF     EXT INFLOW  EXT OUTFLOW    STORAGE      FROM MVR      TO MVR      IN - OUT    DIFFERENCE 
 --------------------------------------------------------------------------------------------------------------------------------------------------------------------------------------------------------
     1      (1,1,1)               0.0000      -24.771      -0.22868      0.0000       0.0000       0.0000       25.000       0.0000       0.0000       0.0000       0.0000       0.0000       0.0000     
     2      (1,2,2)               24.771      -24.416      -0.35500      0.0000       0.0000       0.0000       0.0000       0.0000       0.0000       0.0000       0.0000       0.0000       0.0000     
     3      (1,3,3)               24.416      -24.113      -0.30357      0.0000       0.0000       0.0000       0.0000       0.0000       0.0000       0.0000       0.0000       0.0000       0.0000     
     4      (1,3,4)               24.113      -23.833      -0.28022      0.0000       0.0000       0.0000       0.0000       0.0000       0.0000       0.0000       0.0000       0.0000       0.0000     
     5      (1,4,5)               13.833      -13.533      -0.29961      0.0000       0.0000       0.0000       0.0000       0.0000       0.0000       0.0000       0.0000       0.0000       0.0000     
     6      (1,5,6)               13.533      -13.303      -0.22988      0.0000       0.0000       0.0000       0.0000       0.0000       0.0000       0.0000       0.0000       0.0000       0.0000     
     7      (1,6,6)               13.303      -13.074      -0.22937      0.0000       0.0000       0.0000       0.0000       0.0000       0.0000       0.0000       0.0000       0.0000       0.0000     
     8      (1,7,6)               13.074      -12.845      -0.22885      0.0000       0.0000       0.0000       0.0000       0.0000       0.0000       0.0000       0.0000       0.0000       0.0000     
     9      (1,8,6)               12.845      -12.616      -0.22833      0.0000       0.0000       0.0000       0.0000       0.0000       0.0000       0.0000       0.0000       0.0000       0.0000     
     10     (1,3,5)               10.000      -9.9788      -2.12214E-02  0.0000       0.0000       0.0000       0.0000       0.0000       0.0000       0.0000       0.0000       0.0000       0.0000     
     11     (1,3,6)               9.9788      -9.9589      -1.99133E-02  0.0000       0.0000       0.0000       0.0000       0.0000       0.0000       0.0000       0.0000       0.0000       0.0000     
     12     (1,3,7)               9.9589      -9.9421      -1.67956E-02  0.0000       0.0000       0.0000       0.0000       0.0000       0.0000       0.0000       0.0000       0.0000       0.0000     
     13     (1,4,8)               9.9421      -9.9213      -2.07205E-02  0.0000       0.0000       0.0000       0.0000       0.0000       0.0000       0.0000       0.0000       0.0000       0.0000     
     14     (1,5,8)               9.9213      -9.9056      -1.57906E-02  0.0000       0.0000       0.0000       0.0000       0.0000       0.0000       0.0000       0.0000       0.0000       0.0000     
     15     (1,6,8)               9.9056      -9.8996      -5.93648E-03  0.0000       0.0000       0.0000       0.0000       0.0000       0.0000       0.0000       0.0000       0.0000       0.0000     
     16     (1,5,10)              0.0000      -9.9091      -9.09198E-02  0.0000       0.0000       0.0000       10.000       0.0000       0.0000       0.0000       0.0000       0.0000       0.0000     
     17     (1,5,9)               9.9091      -9.7275      -0.18158      0.0000       0.0000       0.0000       0.0000       0.0000       0.0000       0.0000       0.0000       0.0000       0.0000     
     18     (1,6,8)               9.7275      -9.6006      -0.12690      0.0000       0.0000       0.0000       0.0000       0.0000       0.0000       0.0000       0.0000       0.0000       0.0000     
     19     (1,6,8)               19.500      -19.329      -0.17138      0.0000       0.0000       0.0000       0.0000       0.0000       0.0000       0.0000       0.0000       0.0000       0.0000     
     20     (1,7,7)               19.329      -19.115      -0.21385      0.0000       0.0000       0.0000       0.0000       0.0000       0.0000       0.0000       0.0000       0.0000       0.0000     
     21     (1,8,7)               19.115      -18.966      -0.14944      0.0000       0.0000       0.0000       0.0000       0.0000       0.0000       0.0000       0.0000       0.0000       0.0000     
     22     (1,8,6)               18.966      -18.859      -0.10661      0.0000       0.0000       0.0000       0.0000       0.0000       0.0000       0.0000       0.0000       0.0000       0.0000     
     23     (1,9,6)               31.475       0.0000      -0.24837      0.0000       0.0000       0.0000       0.0000       0.0000       0.0000       0.0000      -31.227       0.0000       0.0000     
     24     (1,12,7)              0.0000      -32.571      -2.54998E-02  0.0000       0.0000       0.0000       0.0000       0.0000       0.0000       32.597       0.0000       0.0000       0.0000     
     25     (1,13,7)              32.571      -32.543      -2.80457E-02  0.0000       0.0000       0.0000       0.0000       0.0000       0.0000       0.0000       0.0000       0.0000       0.0000     
     26     (1,14,9)              0.0000      -147.31      -2.6922       0.0000       0.0000       0.0000       150.00       0.0000       0.0000       0.0000       0.0000       0.0000       0.0000     
     27     (1,13,8)              147.31      -144.63      -2.6825       0.0000       0.0000       0.0000       0.0000       0.0000       0.0000       0.0000       0.0000       0.0000       0.0000     
     28     (1,13,7)              144.63      -141.95      -2.6727       0.0000       0.0000       0.0000       0.0000       0.0000       0.0000       0.0000       0.0000       0.0000       0.0000     
     29     (1,13,6)              174.50       0.0000       1.3657       0.0000       0.0000       0.0000       0.0000      -1.03517E-08  0.0000       0.0000      -175.86       0.0000       0.0000     
     30     (1,13,2)              0.0000      -189.37       3.1236       0.0000       0.0000       0.0000       0.0000       0.0000       0.0000       186.25       0.0000       0.0000       0.0000     
     31     (1,13,1)              189.37       0.0000       1.3219       0.0000       0.0000       0.0000       0.0000      -197.23       0.0000       6.5390       0.0000       0.0000       0.0000     
 --------------------------------------------------------------------------------------------------------------------------------------------------------------------------------------------------------



 LAK-1 PACKAGE - SUMMARY OF FLOWS FOR EACH CONTROL VOLUME   PERIOD      6   STEP       15
 -----------------------------------------------------------------------------------------------------------------------------------------------------------------------------------
                                                                                                                                                                          PERCENT   
   NUMBER       GWF        RAINFALL   EVAPORATION     RUNOFF     EXT INFLOW   WITHDRAWAL  EXT OUTFLOW    STORAGE      CONSTANT     FROM MVR      TO MVR      IN - OUT    DIFFERENCE 
 -----------------------------------------------------------------------------------------------------------------------------------------------------------------------------------
     1      -4.1347       5.0000      -1.0000       1.5000       0.0000       0.0000       0.0000       4.52561E-03  0.0000       31.227      -32.597       7.69252E-08  2.03875E-07
     2       7.1937       3.6000      -3.3000       3.0000       0.0000      -0.12000     -2.47809E-09  1.26533E-02  0.0000       175.86      -186.25       2.27808E-07  1.20109E-07
 -----------------------------------------------------------------------------------------------------------------------------------------------------------------------------------



 WATER MOVER PACKAGE (MVR) FLOW RATES   PERIOD      6   STEP       15
 --------------------------------------------------------------------------------------------------------------------------
                                               PROVIDER  AVAILABLE   PROVIDED                                     RECEIVER 
   NUMBER           PROVIDER LOCATION             ID        RATE       RATE            RECEIVER LOCATION             ID    
 --------------------------------------------------------------------------------------------------------------------------
     1                  E13/SFR-1                 23      31.2       31.2                  E13/LAK-1                 1     
     2                  E13/LAK-1                 1       32.6       32.6                  E13/SFR-1                 24    
     3                  E13/SFR-1                 29      176.       176.                  E13/LAK-1                 2     
     4                  E13/LAK-1                 2       186.       186.                  E13/SFR-1                 30    
     5                  E13/UZF-1                 1       0.00       0.00                  E13/SFR-1                 1     
     6                  E13/UZF-1                 2       0.00       0.00                  E13/SFR-1                 2     
     7                  E13/UZF-1                 3       0.00       0.00                  E13/SFR-1                 2     
     8                  E13/UZF-1                 4       0.00       0.00                  E13/SFR-1                 2     
     9                  E13/UZF-1                 5       0.00       0.00                  E13/SFR-1                 3     
     10                 E13/UZF-1                 6       0.00       0.00                  E13/SFR-1                 11    
     11                 E13/UZF-1                 7       0.00       0.00                  E13/SFR-1                 12    
     12                 E13/UZF-1                 8       0.00       0.00                  E13/SFR-1                 12    
     13                 E13/UZF-1                 9       0.00       0.00                  E13/SFR-1                 2     
     14                 E13/UZF-1                 10      0.00       0.00                  E13/SFR-1                 3     
     15                 E13/UZF-1                 11      0.00       0.00                  E13/SFR-1                 4     
     16                 E13/UZF-1                 12      0.00       0.00                  E13/SFR-1                 10    
     17                 E13/UZF-1                 13      0.00       0.00                  E13/SFR-1                 11    
     18                 E13/UZF-1                 14      0.00       0.00                  E13/SFR-1                 12    
     19                 E13/UZF-1                 15      0.00       0.00                  E13/SFR-1                 13    
     20                 E13/UZF-1                 16      0.00       0.00                  E13/LAK-1                 2     
     21                 E13/UZF-1                 17      0.00       0.00                  E13/LAK-1                 2     
     22                 E13/UZF-1                 18      0.00       0.00                  E13/SFR-1                 3     
     23                 E13/UZF-1                 19      0.00       0.00                  E13/SFR-1                 4     
     24                 E13/UZF-1                 20      0.00       0.00                  E13/SFR-1                 5     
     25                 E13/UZF-1                 21      0.00       0.00                  E13/SFR-1                 6     
     26                 E13/UZF-1                 22      0.00       0.00                  E13/SFR-1                 6     
     27                 E13/UZF-1                 23      0.00       0.00                  E13/SFR-1                 13    
     28                 E13/UZF-1                 24      0.00       0.00                  E13/SFR-1                 17    
     29                 E13/UZF-1                 25      0.00       0.00                  E13/LAK-1                 2     
     30                 E13/UZF-1                 26      0.00       0.00                  E13/LAK-1                 2     
     31                 E13/UZF-1                 27      0.00       0.00                  E13/LAK-1                 2     
     32                 E13/UZF-1                 28      0.00       0.00                  E13/LAK-1                 2     
     33                 E13/UZF-1                 29      0.00       0.00                  E13/SFR-1                 5     
     34                 E13/UZF-1                 30      0.00       0.00                  E13/SFR-1                 6     
     35                 E13/UZF-1                 31      0.00       0.00                  E13/SFR-1                 6     
     36                 E13/UZF-1                 32      0.00       0.00                  E13/SFR-1                 14    
     37                 E13/UZF-1                 33      0.00       0.00                  E13/SFR-1                 17    
     38                 E13/UZF-1                 34      0.00       0.00                  E13/SFR-1                 16    
     39                 E13/UZF-1                 35      0.00       0.00                  E13/LAK-1                 2     
     40                 E13/UZF-1                 36      0.00       0.00                  E13/LAK-1                 2     
     41                 E13/UZF-1                 37      0.00       0.00                  E13/LAK-1                 2     
     42                 E13/UZF-1                 38      0.00       0.00                  E13/LAK-1                 2     
     43                 E13/UZF-1                 39      0.00       0.00                  E13/LAK-1                 2     
     44                 E13/UZF-1                 40      0.00       0.00                  E13/SFR-1                 7     
     45                 E13/UZF-1                 41      0.00       0.00                  E13/SFR-1                 7     
     46                 E13/UZF-1                 42      0.00       0.00                  E13/SFR-1                 19    
     47                 E13/UZF-1                 43      0.00       0.00                  E13/SFR-1                 17    
     48                 E13/UZF-1                 44      0.00       0.00                  E13/SFR-1                 16    
     49                 E13/UZF-1                 45      0.00       0.00                  E13/LAK-1                 2     
     50                 E13/UZF-1                 46      0.00       0.00                  E13/LAK-1                 2     
     51                 E13/UZF-1                 47      0.00       0.00                  E13/LAK-1                 2     
     52                 E13/UZF-1                 48      0.00       0.00                  E13/LAK-1                 2     
     53                 E13/UZF-1                 49      0.00       0.00                  E13/LAK-1                 2     
     54                 E13/UZF-1                 50      0.00       0.00                  E13/SFR-1                 8     
     55                 E13/UZF-1                 51      0.00       0.00                  E13/SFR-1                 20    
     56                 E13/UZF-1                 52      0.00       0.00                  E13/SFR-1                 20    
     57                 E13/UZF-1                 53      0.00       0.00                  E13/SFR-1                 20    
     58                 E13/UZF-1                 54      0.00       0.00                  E13/LAK-1                 2     
     59                 E13/UZF-1                 55      0.00       0.00                  E13/LAK-1                 2     
     60                 E13/UZF-1                 56      0.00       0.00                  E13/LAK-1                 2     
     61                 E13/UZF-1                 57      0.00       0.00                  E13/LAK-1                 2     
     62                 E13/UZF-1                 58      0.00       0.00                  E13/SFR-1                 9     
     63                 E13/UZF-1                 59      0.00       0.00                  E13/SFR-1                 21    
     64                 E13/UZF-1                 60      0.00       0.00                  E13/SFR-1                 21    
     65                 E13/UZF-1                 61      0.00       0.00                  E13/SFR-1                 21    
     66                 E13/UZF-1                 62      0.00       0.00                  E13/LAK-1                 2     
     67                 E13/UZF-1                 63      0.00       0.00                  E13/LAK-1                 2     
     68                 E13/UZF-1                 64      0.00       0.00                  E13/LAK-1                 2     
     69                 E13/UZF-1                 65      0.00       0.00                  E13/LAK-1                 2     
     70                 E13/UZF-1                 66      0.00       0.00                  E13/SFR-1                 23    
     71                 E13/UZF-1                 67      0.00       0.00                  E13/LAK-1                 1     
     72                 E13/UZF-1                 68      0.00       0.00                  E13/LAK-1                 1     
     73                 E13/UZF-1                 69      0.00       0.00                  E13/LAK-1                 1     
     74                 E13/UZF-1                 70      0.00       0.00                  E13/LAK-1                 2     
     75                 E13/UZF-1                 71      0.00       0.00                  E13/LAK-1                 2     
     76                 E13/UZF-1                 72      0.00       0.00                  E13/LAK-1                 2     
     77                 E13/UZF-1                 73      0.00       0.00                  E13/LAK-1                 2     
     78                 E13/UZF-1                 74      0.00       0.00                  E13/LAK-1                 1     
     79                 E13/UZF-1                 75      0.00       0.00                  E13/LAK-1                 1     
     80                 E13/UZF-1                 76      0.00       0.00                  E13/LAK-1                 1     
     81                 E13/UZF-1                 77      0.00       0.00                  E13/LAK-1                 2     
     82                 E13/UZF-1                 78      0.00       0.00                  E13/SFR-1                 9     
     83                 E13/UZF-1                 79      0.00       0.00                  E13/LAK-1                 1     
     84                 E13/UZF-1                 80      0.00       0.00                  E13/SFR-1                 31    
     85                 E13/UZF-1                 81      0.00       0.00                  E13/SFR-1                 30    
     86                 E13/UZF-1                 82      0.00       0.00                  E13/SFR-1                 9     
     87                 E13/UZF-1                 83      0.00       0.00                  E13/SFR-1                 24    
     88                 E13/UZF-1                 84      0.00       0.00                  E13/LAK-1                 1     
     89                 E13/UZF-1                 85      0.00       0.00                  E13/LAK-1                 1     
     90                 E13/UZF-1                 86      6.54       6.54                  E13/SFR-1                 31    
     91                 E13/UZF-1                 87      0.00       0.00                  E13/SFR-1                 30    
     92                 E13/UZF-1                 88      0.00       0.00                  E13/SFR-1                 29    
     93                 E13/UZF-1                 89      0.00       0.00                  E13/SFR-1                 28    
     94                 E13/UZF-1                 90      0.00       0.00                  E13/SFR-1                 27    
     95                 E13/UZF-1                 91      0.00       0.00                  E13/SFR-1                 26    
     96                 E13/UZF-1                 92      0.00       0.00                  E13/SFR-1                 30    
     97                 E13/UZF-1                 93      0.00       0.00                  E13/LAK-1                 2     
     98                 E13/UZF-1                 94      0.00       0.00                  E13/SFR-1                 28    
     99                 E13/UZF-1                 95      0.00       0.00                  E13/SFR-1                 27    
    100                 E13/UZF-1                 96      0.00       0.00                  E13/SFR-1                 26    
    101                 E13/UZF-1                 97      0.00       0.00                  E13/LAK-1                 2     
    102                 E13/UZF-1                 98      0.00       0.00                  E13/LAK-1                 2     
    103                 E13/UZF-1                 99      0.00       0.00                  E13/LAK-1                 2     
    104                 E13/UZF-1                100      0.00       0.00                  E13/LAK-1                 2     
    105                 E13/WEL-1                 1       0.00       0.00                  E13/UZF-1                 38    
    106                 E13/WEL-1                 2       0.00       0.00                  E13/UZF-1                 39    
    107                 E13/WEL-1                 3       0.00       0.00                  E13/UZF-1                 48    
    108                 E13/WEL-1                 4       0.00       0.00                  E13/UZF-1                 49    
    109                 E13/WEL-1                 5       0.00       0.00                  E13/UZF-1                 56    
    110                 E13/WEL-1                 6       0.00       0.00                  E13/UZF-1                 57    
    111                 E13/WEL-1                 7       0.00       0.00                  E13/UZF-1                 64    
    112                 E13/WEL-1                 8       0.00       0.00                  E13/UZF-1                 65    
    113                 E13/WEL-1                 9       0.00       0.00                  E13/UZF-1                 72    
    114                 E13/WEL-1                 10      0.00       0.00                  E13/UZF-1                 73    
 --------------------------------------------------------------------------------------------------------------------------



 SFR PACKAGE (SFR-1) STAGES FOR EACH CONTROL VOLUME   PERIOD      6   STEP       15
 ------------------------------------------------------------------------------------------------------------------------------------------------------
                                                                                                                               STREAMBED    STREAMBED  
 NAME                                       NUMBER   CELLID                  STAGE        DEPTH        WIDTH       GWF HEAD   CONDUCTANCE    GRADIENT  
 ------------------------------------------------------------------------------------------------------------------------------------------------------
 ALLREACHES                                   1      (1,1,1)               1094.3       1.2349       12.000       1019.4       5.40000E-02  1.4116     
 ALLREACHES                                   2      (1,2,2)               1089.3       1.2262       12.000       1019.6       8.40000E-02  1.4087     
 ALLREACHES                                   3      (1,3,3)               1083.6       1.2163       12.000       1019.3       7.20000E-02  1.4054     
 ALLREACHES                                   4      (1,3,4)               1078.6       1.2075       12.000       1019.1       6.66000E-02  1.4025     
 ALLREACHES                                   5      (1,4,5)               1072.8       0.84113      12.000       1019.1       7.80000E-02  1.2804     
 ALLREACHES                                   6      (1,5,6)               1067.3       0.83133      12.000       1018.8       6.00000E-02  1.2771     
 ALLREACHES                                   7      (1,6,6)               1062.6       0.82276      12.000       1018.6       6.00000E-02  1.2743     
 ALLREACHES                                   8      (1,7,6)               1057.9       0.81415      12.000       1018.5       6.00000E-02  1.2714     
 ALLREACHES                                   9      (1,8,6)               1053.2       0.80551      12.000       1018.5       6.00000E-02  1.2685     
 ALLREACHES                                   10     (1,3,5)               1074.6       0.93630      9.6364       1018.3       7.22727E-03  1.4681     
 ALLREACHES                                   11     (1,3,6)               1071.9       0.98022      8.9091       1018.3       6.68182E-03  1.4901     
 ALLREACHES                                   12     (1,3,7)               1069.3       1.0277       8.2182       1018.4       5.54727E-03  1.5139     
 ALLREACHES                                   13     (1,4,8)               1066.5       1.0884       7.4545       1018.4       6.70909E-03  1.5442     
 ALLREACHES                                   14     (1,5,8)               1063.6       1.1639       6.6545       1018.5       4.99091E-03  1.5819     
 ALLREACHES                                   15     (1,6,8)               1061.8       1.2200       6.1455       1019.1       1.84364E-03  1.6100     
 ALLREACHES                                   16     (1,5,10)              1078.4       0.63679      10.000       1018.7       2.50000E-02  1.2123     
 ALLREACHES                                   17     (1,5,9)               1071.5       0.63155      10.000       1018.9       5.00000E-02  1.2105     
 ALLREACHES                                   18     (1,6,8)               1063.8       0.62558      10.000       1019.1       3.50000E-02  1.2085     
 ALLREACHES                                   19     (1,6,8)               1060.0       1.2846       10.000       1019.1       4.00000E-02  1.4282     
 ALLREACHES                                   20     (1,7,7)               1056.9       1.2770       10.000       1018.7       5.00000E-02  1.4257     
 ALLREACHES                                   21     (1,8,7)               1054.1       1.2697       10.000       1018.5       3.50000E-02  1.4232     
 ALLREACHES                                   22     (1,8,6)               1052.1       1.2646       10.000       1018.5       2.50000E-02  1.4215     
 ALLREACHES                                   23     (1,9,6)               1046.6       1.1396       12.000       1018.0       6.00000E-02  1.3799     
 ALLREACHES                                   24     (1,12,7)              1037.7       1.2500       12.000       1018.7       6.00000E-03  1.4167     
 ALLREACHES                                   25     (1,13,7)              1030.2       1.2493       12.000       1021.4       6.60000E-03  1.4164     
 ALLREACHES                                   26     (1,14,9)              1034.8       1.4870       60.000       1026.2       0.60000      1.4957     
 ALLREACHES                                   27     (1,13,8)              1031.5       1.4708       60.000       1023.4       0.60000      1.4903     
 ALLREACHES                                   28     (1,13,7)              1028.1       1.4546       60.000       1021.4       0.60000      1.4849     
 ALLREACHES                                   29     (1,13,6)              1013.9       0.90762      60.000       1016.2       0.60000     -0.75870    
 ALLREACHES                                   30     (1,13,2)              998.29       1.4169       60.000       1003.5       0.60000     -1.7353     
 ALLREACHES                                   31     (1,13,1)              993.33       1.4562       60.000       997.00       0.36000     -1.2240     
 ------------------------------------------------------------------------------------------------------------------------------------------------------



 LAK PACKAGE (LAK-1) STAGES FOR EACH CONTROL VOLUME   PERIOD      6   STEP       15
 --------------------------------------------------------------
   NUMBER      STAGE     SURFACE AREA WETTED AREA     VOLUME   
 --------------------------------------------------------------
     1       1041.3       1.00000E+08  1.01383E+08  4.27507E+09
     2       1001.4       3.00000E+08  3.01380E+08  5.29795E+09
 --------------------------------------------------------------



 HEAD WILL BE SAVED ON UNIT 1026 AT END OF TIME STEP   15, STRESS PERIOD    6


  SFR-1 BUDGET FOR ENTIRE MODEL AT END OF TIME STEP   15, STRESS PERIOD   6
  ------------------------------------------------------------------------------

     CUMULATIVE SFR-1      L**3       RATES FOR THIS TIME STEP      L**3/T
     ------------------                 ------------------------

           IN:                                      IN:
           ---                                      ---
                 GWF =    88662402.1434                   GWF =           5.8112
            RAINFALL =           0.0000              RAINFALL =           0.0000
         EVAPORATION =           0.0000           EVAPORATION =           0.0000
              RUNOFF =           0.0000                RUNOFF =           0.0000
          EXT-INFLOW =  2917080000.0000            EXT-INFLOW =         185.0000
         EXT-OUTFLOW =           0.0000           EXT-OUTFLOW =           0.0000
             STORAGE =           0.0000               STORAGE =           0.0000
            FROM-MVR =  3548022049.9350              FROM-MVR =         225.3837
              TO-MVR =           0.0000                TO-MVR =           0.0000

            TOTAL IN =  6553764452.0784              TOTAL IN =         416.1949

          OUT:                                     OUT:
          ----                                     ----
                 GWF =   187228049.2139                   GWF =          11.8739
            RAINFALL =           0.0000              RAINFALL =           0.0000
         EVAPORATION =           0.0000           EVAPORATION =           0.0000
              RUNOFF =           0.0000                RUNOFF =           0.0000
          EXT-INFLOW =           0.0000            EXT-INFLOW =           0.0000
         EXT-OUTFLOW =  3100613781.9205           EXT-OUTFLOW =         197.2324
             STORAGE =           0.0000               STORAGE =           0.0000
            FROM-MVR =           0.0000              FROM-MVR =           0.0000
              TO-MVR =  3265922620.9440                TO-MVR =         207.0886

           TOTAL OUT =  6553764452.0784             TOTAL OUT =         416.1949

            IN - OUT =           0.0000              IN - OUT =       5.6843E-14

 PERCENT DISCREPANCY =           0.00     PERCENT DISCREPANCY =           0.00



  LAK-1 BUDGET FOR ENTIRE MODEL AT END OF TIME STEP   15, STRESS PERIOD   6
  ------------------------------------------------------------------------------

     CUMULATIVE LAK-1      L**3       RATES FOR THIS TIME STEP      L**3/T
     ------------------                 ------------------------

           IN:                                      IN:
           ---                                      ---
                 GWF =   114514717.5883                   GWF =           7.1937
            RAINFALL =   135604800.0000              RAINFALL =           8.6000
         EVAPORATION =           0.0000           EVAPORATION =           0.0000
              RUNOFF =    70956000.0000                RUNOFF =           4.5000
          EXT-INFLOW =           0.0000            EXT-INFLOW =           0.0000
          WITHDRAWAL =           0.0000            WITHDRAWAL =           0.0000
         EXT-OUTFLOW =           0.0000           EXT-OUTFLOW =           0.0000
             STORAGE =      270087.4656               STORAGE =       1.7179E-02
            CONSTANT =           0.0000              CONSTANT =           0.0000
            FROM-MVR =  3265922620.9440              FROM-MVR =         207.0886
              TO-MVR =           0.0000                TO-MVR =           0.0000

            TOTAL IN =  3587268225.9979              TOTAL IN =         227.3994

          OUT:                                     OUT:
          ----                                     ----
                 GWF =    64846619.4763                   GWF =           4.1347
            RAINFALL =           0.0000              RAINFALL =           0.0000
         EVAPORATION =    67802400.0000           EVAPORATION =           4.3000
              RUNOFF =           0.0000                RUNOFF =           0.0000
          EXT-INFLOW =           0.0000            EXT-INFLOW =           0.0000
          WITHDRAWAL =     1892160.0000            WITHDRAWAL =           0.1200
         EXT-OUTFLOW =           1.1542           EXT-OUTFLOW =       2.4781E-09
             STORAGE =          64.9850               STORAGE =           0.0000
            CONSTANT =           0.0000              CONSTANT =           0.0000
            FROM-MVR =           0.0000              FROM-MVR =           0.0000
              TO-MVR =  3452726974.4347                TO-MVR =         218.8447

           TOTAL OUT =  3587268220.0501             TOTAL OUT =         227.3994

            IN - OUT =           5.9478              IN - OUT =       3.0473E-07

 PERCENT DISCREPANCY =           0.00     PERCENT DISCREPANCY =           0.00



  UZF-1 BUDGET FOR ENTIRE MODEL AT END OF TIME STEP   15, STRESS PERIOD   6
  ------------------------------------------------------------------------------

     CUMULATIVE UZF-1      L**3       RATES FOR THIS TIME STEP      L**3/T
     ------------------                 ------------------------

           IN:                                      IN:
           ---                                      ---
                 GWF =           0.0000                   GWF =           0.0000
        INFILTRATION =  2720788635.6000          INFILTRATION =         306.0000
             REJ-INF =           0.0000               REJ-INF =           0.0000
                UZET =           0.0000                  UZET =           0.0000
             STORAGE =     2201991.0008               STORAGE =           1.1499
            FROM-MVR =    89352000.0000              FROM-MVR =           0.0000
      REJ-INF-TO-MVR =           0.0000        REJ-INF-TO-MVR =           0.0000

            TOTAL IN =  2812342626.6008              TOTAL IN =         307.1499

          OUT:                                     OUT:
          ----                                     ----
                 GWF =    20064271.5899                   GWF =           7.0935
        INFILTRATION =           0.0000          INFILTRATION =           0.0000
             REJ-INF =          11.3800               REJ-INF =       1.0273E-08
                UZET =   319677839.5718                  UZET =          24.3238
             STORAGE =  2463709070.2082               STORAGE =         274.7326
            FROM-MVR =           0.0000              FROM-MVR =           0.0000
      REJ-INF-TO-MVR =     8891433.7079        REJ-INF-TO-MVR =           1.0000

           TOTAL OUT =  2812342626.4577             TOTAL OUT =         307.1499

            IN - OUT =           0.1431              IN - OUT =       3.2401E-12

 PERCENT DISCREPANCY =           0.00     PERCENT DISCREPANCY =           0.00



  WATER MOVER BUDGET FOR ENTIRE MODEL AT END OF TIME STEP   15, STRESS PERIOD   6
  ------------------------------------------------------------------------------

     CUMULATIVE WATER MOVER      L**3       RATES FOR THIS TIME STEP      L**3/T
     ------------------                 ------------------------

           IN:                                      IN:
           ---                                      ---
               UZF-1 =    95295075.5003                 UZF-1 =           6.5390
               SFR-1 =  3265922620.9440                 SFR-1 =         207.0886
               LAK-1 =  3452726974.4347                 LAK-1 =         218.8447
               WEL-1 =    89352000.0000                 WEL-1 =           0.0000

            TOTAL IN =  6903296670.8791              TOTAL IN =         432.4723

          OUT:                                     OUT:
          ----                                     ----
               UZF-1 =    89352000.0000                 UZF-1 =           0.0000
               SFR-1 =  3548022049.9350                 SFR-1 =         225.3837
               LAK-1 =  3265922620.9440                 LAK-1 =         207.0886
               WEL-1 =           0.0000                 WEL-1 =           0.0000

           TOTAL OUT =  6903296670.8791             TOTAL OUT =         432.4723

            IN - OUT =           0.0000              IN - OUT =           0.0000

 PERCENT DISCREPANCY =           0.00     PERCENT DISCREPANCY =           0.00



  VOLUME BUDGET FOR ENTIRE MODEL AT END OF TIME STEP   15, STRESS PERIOD   6
  ---------------------------------------------------------------------------------------------------

     CUMULATIVE VOLUME      L**3       RATES FOR THIS TIME STEP      L**3/T          PACKAGE NAME    
     ------------------                 ------------------------                     ----------------

           IN:                                      IN:
           ---                                      ---
              STO-SS =      497750.2209                STO-SS =       1.2768E-02     STORAGE                          
              STO-SY =   127225970.3640                STO-SY =           4.6486     STORAGE                          
                 WEL =           0.0000                   WEL =           0.0000     WEL-1                            
          WEL-TO-MVR =           0.0000            WEL-TO-MVR =           0.0000     WEL-1                            
                 GHB =    11218722.9903                   GHB =           0.7130     GHB_0                            
                 SFR =   187228049.2139                   SFR =          11.8739     SFR-1                            
                 LAK =    64846619.4763                   LAK =           4.1347     LAK-1                            
           UZF-GWRCH =    20064271.5899             UZF-GWRCH =           7.0935     UZF-1                            
             UZF-GWD =           0.0000               UZF-GWD =           0.0000     UZF-1                            
      UZF-GWD TO-MVR =           0.0000        UZF-GWD TO-MVR =           0.0000     UZF-1                            
            UZF-GWET =           0.0000              UZF-GWET =           0.0000     UZF-1                            

            TOTAL IN =   411081383.8553              TOTAL IN =          28.4765

          OUT:                                     OUT:
          ----                                     ----
              STO-SS =       48283.3675                STO-SS =       2.6211E-02     STORAGE                          
              STO-SY =    18085682.5008                STO-SY =           9.0324     STORAGE                          
                 WEL =           0.0000                   WEL =           0.0000     WEL-1                            
          WEL-TO-MVR =    89352000.0000            WEL-TO-MVR =           0.0000     WEL-1                            
                 GHB =     5394472.0268                   GHB =           0.3421     GHB_0                            
                 SFR =    88662624.7991                   SFR =           5.8112     SFR-1                            
                 LAK =   114514717.5883                   LAK =           7.1937     LAK-1                            
           UZF-GWRCH =           0.0000             UZF-GWRCH =           0.0000     UZF-1                            
             UZF-GWD =          83.5325               UZF-GWD =       5.6904E-08     UZF-1                            
      UZF-GWD TO-MVR =    86403641.7924        UZF-GWD TO-MVR =           5.5390     UZF-1                            
            UZF-GWET =     8615731.7935              UZF-GWET =           0.5314     UZF-1                            

           TOTAL OUT =   411077237.4009             TOTAL OUT =          28.4759

            IN - OUT =        4146.4544              IN - OUT =       5.9510E-04

 PERCENT DISCREPANCY =           0.00     PERCENT DISCREPANCY =           0.00




         TIME SUMMARY AT END OF TIME STEP   15 IN STRESS PERIOD    6
                    SECONDS     MINUTES      HOURS       DAYS        YEARS
                    -----------------------------------------------------------
   TIME STEP LENGTH 1.75200E+05  2920.0      48.667      2.0278     5.55175E-03
 STRESS PERIOD TIME 2.62800E+06  43800.      730.00      30.417     8.32763E-02
         TOTAL TIME 1.57680E+07 2.62800E+05  4380.0      182.50     0.49966    


end timestep


start timestep kper="7" kstp="1" mode="normal"


 OUTPUT CONTROL FOR STRESS PERIOD 7 IS REPEATED USING SETTINGS FROM A PREVIOUS STRESS PERIOD.


 STRESS PERIOD 7 IS TRANSIENT


 REUSING MVRS FROM LAST STRESS PERIOD
 ----------------------------------
  WEL NO.    LAYER    ROW     COL  
 ----------------------------------
     1         1       4       8   
     2         1       4       9   
     3         1       5       8   
     4         1       5       9   
     5         1       6       6   
     6         1       6       7   
     7         1       7       4   
     8         1       7       5   
     9         1       8       2   
     10        1       8       3   
 ----------------------------------



 REUSING SFRS FROM LAST STRESS PERIOD

 REUSING LAKS FROM LAST STRESS PERIOD

end timestep


start timestep kper="7" kstp="2" mode="normal"


end timestep


start timestep kper="7" kstp="3" mode="normal"


end timestep


start timestep kper="7" kstp="4" mode="normal"


end timestep


start timestep kper="7" kstp="5" mode="normal"


end timestep


start timestep kper="7" kstp="6" mode="normal"


end timestep


start timestep kper="7" kstp="7" mode="normal"


end timestep


start timestep kper="7" kstp="8" mode="normal"


end timestep


start timestep kper="7" kstp="9" mode="normal"


end timestep


start timestep kper="7" kstp="10" mode="normal"


end timestep


start timestep kper="7" kstp="11" mode="normal"


end timestep


start timestep kper="7" kstp="12" mode="normal"


end timestep


start timestep kper="7" kstp="13" mode="normal"


end timestep


start timestep kper="7" kstp="14" mode="normal"


end timestep


start timestep kper="7" kstp="15" mode="normal"

 UBDSV1 SAVING           STO-SS ON UNIT   1025 AT TIME STEP     15, STRESS PERIOD      7
 UBDSV1 SAVING           STO-SY ON UNIT   1025 AT TIME STEP     15, STRESS PERIOD      7
 UBDSV1 SAVING     FLOW-JA-FACE ON UNIT   1025 AT TIME STEP     15, STRESS PERIOD      7
 UBDSV06 SAVING       DATA-SPDIS IN MODEL E13              PACKAGE NPF             CONNECTED TO MODEL E13              PACKAGE NPF              ON UNIT   1025 AT TIME STEP     15, STRESS PERIOD      7
 UBDSV06 SAVING              WEL IN MODEL E13              PACKAGE E13             CONNECTED TO MODEL E13              PACKAGE WEL-1            ON UNIT   1025 AT TIME STEP     15, STRESS PERIOD      7
 UBDSV06 SAVING       WEL-TO-MVR IN MODEL E13              PACKAGE E13             CONNECTED TO MODEL E13              PACKAGE WEL-1            ON UNIT   1025 AT TIME STEP     15, STRESS PERIOD      7
 UBDSV06 SAVING              GHB IN MODEL E13              PACKAGE E13             CONNECTED TO MODEL E13              PACKAGE GHB_0            ON UNIT   1025 AT TIME STEP     15, STRESS PERIOD      7
 UBDSV06 SAVING              SFR IN MODEL E13              PACKAGE E13             CONNECTED TO MODEL E13              PACKAGE SFR-1            ON UNIT   1025 AT TIME STEP     15, STRESS PERIOD      7
 UBDSV06 SAVING              LAK IN MODEL E13              PACKAGE E13             CONNECTED TO MODEL E13              PACKAGE LAK-1            ON UNIT   1025 AT TIME STEP     15, STRESS PERIOD      7
 UBDSV06 SAVING        UZF-GWRCH IN MODEL E13              PACKAGE E13             CONNECTED TO MODEL E13              PACKAGE UZF-1            ON UNIT   1025 AT TIME STEP     15, STRESS PERIOD      7
 UBDSV06 SAVING          UZF-GWD IN MODEL E13              PACKAGE E13             CONNECTED TO MODEL E13              PACKAGE UZF-1            ON UNIT   1025 AT TIME STEP     15, STRESS PERIOD      7
 UBDSV06 SAVING   UZF-GWD TO-MVR IN MODEL E13              PACKAGE E13             CONNECTED TO MODEL E13              PACKAGE UZF-1            ON UNIT   1025 AT TIME STEP     15, STRESS PERIOD      7
 UBDSV06 SAVING         UZF-GWET IN MODEL E13              PACKAGE E13             CONNECTED TO MODEL E13              PACKAGE UZF-1            ON UNIT   1025 AT TIME STEP     15, STRESS PERIOD      7
 UBDSV06 SAVING     FLOW-JA-FACE IN MODEL E13              PACKAGE SFR-1           CONNECTED TO MODEL E13              PACKAGE SFR-1            ON UNIT   1017 AT TIME STEP     15, STRESS PERIOD      7
 UBDSV06 SAVING              GWF IN MODEL E13              PACKAGE SFR-1           CONNECTED TO MODEL E13              PACKAGE E13              ON UNIT   1017 AT TIME STEP     15, STRESS PERIOD      7
 UBDSV06 SAVING         RAINFALL IN MODEL E13              PACKAGE SFR-1           CONNECTED TO MODEL E13              PACKAGE SFR-1            ON UNIT   1017 AT TIME STEP     15, STRESS PERIOD      7
 UBDSV06 SAVING      EVAPORATION IN MODEL E13              PACKAGE SFR-1           CONNECTED TO MODEL E13              PACKAGE SFR-1            ON UNIT   1017 AT TIME STEP     15, STRESS PERIOD      7
 UBDSV06 SAVING           RUNOFF IN MODEL E13              PACKAGE SFR-1           CONNECTED TO MODEL E13              PACKAGE SFR-1            ON UNIT   1017 AT TIME STEP     15, STRESS PERIOD      7
 UBDSV06 SAVING       EXT-INFLOW IN MODEL E13              PACKAGE SFR-1           CONNECTED TO MODEL E13              PACKAGE SFR-1            ON UNIT   1017 AT TIME STEP     15, STRESS PERIOD      7
 UBDSV06 SAVING      EXT-OUTFLOW IN MODEL E13              PACKAGE SFR-1           CONNECTED TO MODEL E13              PACKAGE SFR-1            ON UNIT   1017 AT TIME STEP     15, STRESS PERIOD      7
 UBDSV06 SAVING          STORAGE IN MODEL E13              PACKAGE SFR-1           CONNECTED TO MODEL E13              PACKAGE SFR-1            ON UNIT   1017 AT TIME STEP     15, STRESS PERIOD      7
 UBDSV06 SAVING         FROM-MVR IN MODEL E13              PACKAGE SFR-1           CONNECTED TO MODEL E13              PACKAGE SFR-1            ON UNIT   1017 AT TIME STEP     15, STRESS PERIOD      7
 UBDSV06 SAVING           TO-MVR IN MODEL E13              PACKAGE SFR-1           CONNECTED TO MODEL E13              PACKAGE SFR-1            ON UNIT   1017 AT TIME STEP     15, STRESS PERIOD      7
 UBDSV06 SAVING              GWF IN MODEL E13              PACKAGE LAK-1           CONNECTED TO MODEL E13              PACKAGE E13              ON UNIT   1019 AT TIME STEP     15, STRESS PERIOD      7
 UBDSV06 SAVING         RAINFALL IN MODEL E13              PACKAGE LAK-1           CONNECTED TO MODEL E13              PACKAGE LAK-1            ON UNIT   1019 AT TIME STEP     15, STRESS PERIOD      7
 UBDSV06 SAVING      EVAPORATION IN MODEL E13              PACKAGE LAK-1           CONNECTED TO MODEL E13              PACKAGE LAK-1            ON UNIT   1019 AT TIME STEP     15, STRESS PERIOD      7
 UBDSV06 SAVING           RUNOFF IN MODEL E13              PACKAGE LAK-1           CONNECTED TO MODEL E13              PACKAGE LAK-1            ON UNIT   1019 AT TIME STEP     15, STRESS PERIOD      7
 UBDSV06 SAVING       EXT-INFLOW IN MODEL E13              PACKAGE LAK-1           CONNECTED TO MODEL E13              PACKAGE LAK-1            ON UNIT   1019 AT TIME STEP     15, STRESS PERIOD      7
 UBDSV06 SAVING       WITHDRAWAL IN MODEL E13              PACKAGE LAK-1           CONNECTED TO MODEL E13              PACKAGE LAK-1            ON UNIT   1019 AT TIME STEP     15, STRESS PERIOD      7
 UBDSV06 SAVING      EXT-OUTFLOW IN MODEL E13              PACKAGE LAK-1           CONNECTED TO MODEL E13              PACKAGE LAK-1            ON UNIT   1019 AT TIME STEP     15, STRESS PERIOD      7
 UBDSV06 SAVING          STORAGE IN MODEL E13              PACKAGE LAK-1           CONNECTED TO MODEL E13              PACKAGE LAK-1            ON UNIT   1019 AT TIME STEP     15, STRESS PERIOD      7
 UBDSV06 SAVING         CONSTANT IN MODEL E13              PACKAGE LAK-1           CONNECTED TO MODEL E13              PACKAGE LAK-1            ON UNIT   1019 AT TIME STEP     15, STRESS PERIOD      7
 UBDSV06 SAVING         FROM-MVR IN MODEL E13              PACKAGE LAK-1           CONNECTED TO MODEL E13              PACKAGE LAK-1            ON UNIT   1019 AT TIME STEP     15, STRESS PERIOD      7
 UBDSV06 SAVING           TO-MVR IN MODEL E13              PACKAGE LAK-1           CONNECTED TO MODEL E13              PACKAGE LAK-1            ON UNIT   1019 AT TIME STEP     15, STRESS PERIOD      7
 UBDSV06 SAVING     FLOW-JA-FACE IN MODEL E13              PACKAGE UZF-1           CONNECTED TO MODEL E13              PACKAGE UZF-1            ON UNIT   1021 AT TIME STEP     15, STRESS PERIOD      7
 UBDSV06 SAVING              GWF IN MODEL E13              PACKAGE UZF-1           CONNECTED TO MODEL E13              PACKAGE E13              ON UNIT   1021 AT TIME STEP     15, STRESS PERIOD      7
 UBDSV06 SAVING     INFILTRATION IN MODEL E13              PACKAGE UZF-1           CONNECTED TO MODEL E13              PACKAGE UZF-1            ON UNIT   1021 AT TIME STEP     15, STRESS PERIOD      7
 UBDSV06 SAVING          REJ-INF IN MODEL E13              PACKAGE UZF-1           CONNECTED TO MODEL E13              PACKAGE UZF-1            ON UNIT   1021 AT TIME STEP     15, STRESS PERIOD      7
 UBDSV06 SAVING             UZET IN MODEL E13              PACKAGE UZF-1           CONNECTED TO MODEL E13              PACKAGE UZF-1            ON UNIT   1021 AT TIME STEP     15, STRESS PERIOD      7
 UBDSV06 SAVING          STORAGE IN MODEL E13              PACKAGE UZF-1           CONNECTED TO MODEL E13              PACKAGE UZF-1            ON UNIT   1021 AT TIME STEP     15, STRESS PERIOD      7
 UBDSV06 SAVING         FROM-MVR IN MODEL E13              PACKAGE UZF-1           CONNECTED TO MODEL E13              PACKAGE UZF-1            ON UNIT   1021 AT TIME STEP     15, STRESS PERIOD      7
 UBDSV06 SAVING   REJ-INF-TO-MVR IN MODEL E13              PACKAGE UZF-1           CONNECTED TO MODEL E13              PACKAGE UZF-1            ON UNIT   1021 AT TIME STEP     15, STRESS PERIOD      7
 UBDSV06 SAVING       MOVER-FLOW IN MODEL E13              PACKAGE UZF-1           CONNECTED TO MODEL E13              PACKAGE UZF-1            ON UNIT   1023 AT TIME STEP     15, STRESS PERIOD      7
 UBDSV06 SAVING       MOVER-FLOW IN MODEL E13              PACKAGE UZF-1           CONNECTED TO MODEL E13              PACKAGE SFR-1            ON UNIT   1023 AT TIME STEP     15, STRESS PERIOD      7
 UBDSV06 SAVING       MOVER-FLOW IN MODEL E13              PACKAGE UZF-1           CONNECTED TO MODEL E13              PACKAGE LAK-1            ON UNIT   1023 AT TIME STEP     15, STRESS PERIOD      7
 UBDSV06 SAVING       MOVER-FLOW IN MODEL E13              PACKAGE UZF-1           CONNECTED TO MODEL E13              PACKAGE WEL-1            ON UNIT   1023 AT TIME STEP     15, STRESS PERIOD      7
 UBDSV06 SAVING       MOVER-FLOW IN MODEL E13              PACKAGE SFR-1           CONNECTED TO MODEL E13              PACKAGE UZF-1            ON UNIT   1023 AT TIME STEP     15, STRESS PERIOD      7
 UBDSV06 SAVING       MOVER-FLOW IN MODEL E13              PACKAGE SFR-1           CONNECTED TO MODEL E13              PACKAGE SFR-1            ON UNIT   1023 AT TIME STEP     15, STRESS PERIOD      7
 UBDSV06 SAVING       MOVER-FLOW IN MODEL E13              PACKAGE SFR-1           CONNECTED TO MODEL E13              PACKAGE LAK-1            ON UNIT   1023 AT TIME STEP     15, STRESS PERIOD      7
 UBDSV06 SAVING       MOVER-FLOW IN MODEL E13              PACKAGE SFR-1           CONNECTED TO MODEL E13              PACKAGE WEL-1            ON UNIT   1023 AT TIME STEP     15, STRESS PERIOD      7
 UBDSV06 SAVING       MOVER-FLOW IN MODEL E13              PACKAGE LAK-1           CONNECTED TO MODEL E13              PACKAGE UZF-1            ON UNIT   1023 AT TIME STEP     15, STRESS PERIOD      7
 UBDSV06 SAVING       MOVER-FLOW IN MODEL E13              PACKAGE LAK-1           CONNECTED TO MODEL E13              PACKAGE SFR-1            ON UNIT   1023 AT TIME STEP     15, STRESS PERIOD      7
 UBDSV06 SAVING       MOVER-FLOW IN MODEL E13              PACKAGE LAK-1           CONNECTED TO MODEL E13              PACKAGE LAK-1            ON UNIT   1023 AT TIME STEP     15, STRESS PERIOD      7
 UBDSV06 SAVING       MOVER-FLOW IN MODEL E13              PACKAGE LAK-1           CONNECTED TO MODEL E13              PACKAGE WEL-1            ON UNIT   1023 AT TIME STEP     15, STRESS PERIOD      7
 UBDSV06 SAVING       MOVER-FLOW IN MODEL E13              PACKAGE WEL-1           CONNECTED TO MODEL E13              PACKAGE UZF-1            ON UNIT   1023 AT TIME STEP     15, STRESS PERIOD      7
 UBDSV06 SAVING       MOVER-FLOW IN MODEL E13              PACKAGE WEL-1           CONNECTED TO MODEL E13              PACKAGE SFR-1            ON UNIT   1023 AT TIME STEP     15, STRESS PERIOD      7
 UBDSV06 SAVING       MOVER-FLOW IN MODEL E13              PACKAGE WEL-1           CONNECTED TO MODEL E13              PACKAGE LAK-1            ON UNIT   1023 AT TIME STEP     15, STRESS PERIOD      7
 UBDSV06 SAVING       MOVER-FLOW IN MODEL E13              PACKAGE WEL-1           CONNECTED TO MODEL E13              PACKAGE WEL-1            ON UNIT   1023 AT TIME STEP     15, STRESS PERIOD      7

 WEL PACKAGE (WEL-1) FLOW RATES   PERIOD      7   STEP       15
 -----------------------------------------------
   NUMBER   CELLID                    RATE      
 -----------------------------------------------
     1      (1,6,4)               0.0000000     
     2      (1,6,5)               0.0000000     
     3      (1,7,4)               0.0000000     
     4      (1,7,5)               0.0000000     
     5      (1,8,4)               0.0000000     
     6      (1,8,5)               0.0000000     
     7      (1,9,4)               0.0000000     
     8      (1,9,5)               0.0000000     
     9      (1,10,4)              0.0000000     
     10     (1,10,5)              0.0000000     
 -----------------------------------------------




 WEL PACKAGE (WEL-1) FLOW RATES TO-MVR   PERIOD      7   STEP       15
 -----------------------------------------------
   NUMBER   CELLID                    RATE      
 -----------------------------------------------
     1      (1,6,4)              -0.85000000    
     2      (1,6,5)              -0.85000000    
     3      (1,7,4)              -0.85000000    
     4      (1,7,5)              -0.85000000    
     5      (1,8,4)              -0.85000000    
     6      (1,8,5)              -0.85000000    
     7      (1,9,4)              -0.85000000    
     8      (1,9,5)              -0.85000000    
     9      (1,10,4)             -0.85000000    
     10     (1,10,5)             -0.85000000    
 -----------------------------------------------




 SFR PACKAGE (SFR-1) FLOW RATES   PERIOD      7   STEP       15
 ----------------------------------------------------------------------------------------
   NUMBER   CELLID                    RATE       NAME                                    
 ----------------------------------------------------------------------------------------
     1      (1,1,1)               0.22868377     ALLREACHES                              
     2      (1,2,2)               0.35499870     ALLREACHES                              
     3      (1,3,3)               0.30357347     ALLREACHES                              
     4      (1,3,4)               0.28021936     ALLREACHES                              
     5      (1,4,5)               0.29960805     ALLREACHES                              
     6      (1,5,6)               0.22987955     ALLREACHES                              
     7      (1,6,6)               0.22936563     ALLREACHES                              
     8      (1,7,6)               0.22884928     ALLREACHES                              
     9      (1,8,6)               0.22833044     ALLREACHES                              
     10     (1,3,5)               2.12214188E-02 ALLREACHES                              
     11     (1,3,6)               1.99133007E-02 ALLREACHES                              
     12     (1,3,7)               1.67956407E-02 ALLREACHES                              
     13     (1,4,8)               2.07205450E-02 ALLREACHES                              
     14     (1,5,8)               1.57905563E-02 ALLREACHES                              
     15     (1,6,8)               5.93648362E-03 ALLREACHES                              
     16     (1,5,10)              9.09197693E-02 ALLREACHES                              
     17     (1,5,9)               0.18157734     ALLREACHES                              
     18     (1,6,8)               0.12689514     ALLREACHES                              
     19     (1,6,8)               0.17138468     ALLREACHES                              
     20     (1,7,7)               0.21384773     ALLREACHES                              
     21     (1,8,7)               0.14943953     ALLREACHES                              
     22     (1,8,6)               0.10661428     ALLREACHES                              
     23     (1,9,6)               0.24837387     ALLREACHES                              
     24     (1,12,7)              2.54999469E-02 ALLREACHES                              
     25     (1,13,7)              2.80458739E-02 ALLREACHES                              
     26     (1,14,9)              2.6922030      ALLREACHES                              
     27     (1,13,8)              2.6824902      ALLREACHES                              
     28     (1,13,7)              2.6727412      ALLREACHES                              
     29     (1,13,6)             -1.4085511      ALLREACHES                              
     30     (1,13,2)             -2.9766801      ALLREACHES                              
     31     (1,13,1)             -1.3236013      ALLREACHES                              
 ----------------------------------------------------------------------------------------




 LAK PACKAGE (LAK-1) FLOW RATES   PERIOD      7   STEP       15
 -----------------------------------------------
   NUMBER   CELLID                    RATE      
 -----------------------------------------------
     1      (1,9,7)               8.41565332E-03
     2      (1,10,6)              1.08732964E-02
     3      (2,10,7)              1.0251534     
     4      (1,9,8)               6.02792028E-03
     5      (1,10,9)              1.05143590E-04
     6      (2,10,8)              1.0068949     
     7      (1,11,6)              1.18389332E-02
     8      (1,12,7)              1.12560685E-02
     9      (2,11,7)              1.0248565     
     10     (1,11,9)              2.62771008E-03
     11     (1,12,8)              1.10236737E-02
     12     (2,11,8)              1.0034757     
     13     (1,10,3)             -3.36281946E-04
     14     (1,11,2)             -9.23010647E-04
     15     (2,11,3)             -0.59454717    
     16     (1,10,4)             -9.94138180E-04
     17     (2,11,4)             -0.61844004    
     18     (1,10,5)             -2.75716223E-03
     19     (1,11,6)             -3.97042118E-03
     20     (2,11,5)             -0.64958421    
     21     (1,12,2)             -3.54089858E-03
     22     (2,12,3)             -0.56699674    
     23     (2,12,4)             -0.60183754    
     24     (1,12,6)             -5.39485370E-03
     25     (2,12,5)             -0.64005195    
     26     (1,13,2)             -9.06766185E-04
     27     (2,13,3)             -0.55251255    
     28     (2,13,4)             -0.59342574    
     29     (1,13,6)             -5.82173052E-03
     30     (2,13,5)             -0.63523712    
     31     (1,14,2)             -3.87998705E-03
     32     (1,15,3)              0.0000000     
     33     (2,14,3)             -0.55726022    
     34     (1,15,4)              0.0000000     
     35     (2,14,4)             -0.58967621    
     36     (1,14,6)             -5.12993620E-03
     37     (1,15,5)              0.0000000     
     38     (2,14,5)             -0.62868622    
 -----------------------------------------------




 SFR-1 PACKAGE - SUMMARY OF FLOWS FOR EACH CONTROL VOLUME   PERIOD      7   STEP       15
 --------------------------------------------------------------------------------------------------------------------------------------------------------------------------------------------------------
                                                                                                                                                                                               PERCENT   
   NUMBER   CELLID                  INFLOW      OUTFLOW        GWF        RAINFALL   EVAPORATION     RUNOFF     EXT INFLOW  EXT OUTFLOW    STORAGE      FROM MVR      TO MVR      IN - OUT    DIFFERENCE 
 --------------------------------------------------------------------------------------------------------------------------------------------------------------------------------------------------------
     1      (1,1,1)               0.0000      -24.771      -0.22868      0.0000       0.0000       0.0000       25.000       0.0000       0.0000       0.0000       0.0000       0.0000       0.0000     
     2      (1,2,2)               24.771      -24.416      -0.35500      0.0000       0.0000       0.0000       0.0000       0.0000       0.0000       0.0000       0.0000       0.0000       0.0000     
     3      (1,3,3)               24.416      -24.113      -0.30357      0.0000       0.0000       0.0000       0.0000       0.0000       0.0000       0.0000       0.0000       0.0000       0.0000     
     4      (1,3,4)               24.113      -23.833      -0.28022      0.0000       0.0000       0.0000       0.0000       0.0000       0.0000       0.0000       0.0000       0.0000       0.0000     
     5      (1,4,5)               13.833      -13.533      -0.29961      0.0000       0.0000       0.0000       0.0000       0.0000       0.0000       0.0000       0.0000       0.0000       0.0000     
     6      (1,5,6)               13.533      -13.303      -0.22988      0.0000       0.0000       0.0000       0.0000       0.0000       0.0000       0.0000       0.0000       0.0000       0.0000     
     7      (1,6,6)               13.303      -13.074      -0.22937      0.0000       0.0000       0.0000       0.0000       0.0000       0.0000       0.0000       0.0000       0.0000       0.0000     
     8      (1,7,6)               13.074      -12.845      -0.22885      0.0000       0.0000       0.0000       0.0000       0.0000       0.0000       0.0000       0.0000       0.0000       0.0000     
     9      (1,8,6)               12.845      -12.616      -0.22833      0.0000       0.0000       0.0000       0.0000       0.0000       0.0000       0.0000       0.0000       0.0000       0.0000     
     10     (1,3,5)               10.000      -9.9788      -2.12214E-02  0.0000       0.0000       0.0000       0.0000       0.0000       0.0000       0.0000       0.0000       0.0000       0.0000     
     11     (1,3,6)               9.9788      -9.9589      -1.99133E-02  0.0000       0.0000       0.0000       0.0000       0.0000       0.0000       0.0000       0.0000       0.0000       0.0000     
     12     (1,3,7)               9.9589      -9.9421      -1.67956E-02  0.0000       0.0000       0.0000       0.0000       0.0000       0.0000       0.0000       0.0000       0.0000       0.0000     
     13     (1,4,8)               9.9421      -9.9213      -2.07205E-02  0.0000       0.0000       0.0000       0.0000       0.0000       0.0000       0.0000       0.0000       0.0000       0.0000     
     14     (1,5,8)               9.9213      -9.9056      -1.57906E-02  0.0000       0.0000       0.0000       0.0000       0.0000       0.0000       0.0000       0.0000       0.0000       0.0000     
     15     (1,6,8)               9.9056      -9.8996      -5.93648E-03  0.0000       0.0000       0.0000       0.0000       0.0000       0.0000       0.0000       0.0000       0.0000       0.0000     
     16     (1,5,10)              0.0000      -9.9091      -9.09198E-02  0.0000       0.0000       0.0000       10.000       0.0000       0.0000       0.0000       0.0000       0.0000       0.0000     
     17     (1,5,9)               9.9091      -9.7275      -0.18158      0.0000       0.0000       0.0000       0.0000       0.0000       0.0000       0.0000       0.0000       0.0000       0.0000     
     18     (1,6,8)               9.7275      -9.6006      -0.12690      0.0000       0.0000       0.0000       0.0000       0.0000       0.0000       0.0000       0.0000       0.0000       0.0000     
     19     (1,6,8)               19.500      -19.329      -0.17138      0.0000       0.0000       0.0000       0.0000       0.0000       0.0000       0.0000       0.0000       0.0000       0.0000     
     20     (1,7,7)               19.329      -19.115      -0.21385      0.0000       0.0000       0.0000       0.0000       0.0000       0.0000       0.0000       0.0000       0.0000       0.0000     
     21     (1,8,7)               19.115      -18.966      -0.14944      0.0000       0.0000       0.0000       0.0000       0.0000       0.0000       0.0000       0.0000       0.0000       0.0000     
     22     (1,8,6)               18.966      -18.859      -0.10661      0.0000       0.0000       0.0000       0.0000       0.0000       0.0000       0.0000       0.0000       0.0000       0.0000     
     23     (1,9,6)               31.475       0.0000      -0.24837      0.0000       0.0000       0.0000       0.0000       0.0000       0.0000       0.0000      -31.227       0.0000       0.0000     
     24     (1,12,7)              0.0000      -32.572      -2.54999E-02  0.0000       0.0000       0.0000       0.0000       0.0000       0.0000       32.598       0.0000       0.0000       0.0000     
     25     (1,13,7)              32.572      -32.544      -2.80459E-02  0.0000       0.0000       0.0000       0.0000       0.0000       0.0000       0.0000       0.0000       0.0000       0.0000     
     26     (1,14,9)              0.0000      -147.31      -2.6922       0.0000       0.0000       0.0000       150.00       0.0000       0.0000       0.0000       0.0000       0.0000       0.0000     
     27     (1,13,8)              147.31      -144.63      -2.6825       0.0000       0.0000       0.0000       0.0000       0.0000       0.0000       0.0000       0.0000       0.0000       0.0000     
     28     (1,13,7)              144.63      -141.95      -2.6727       0.0000       0.0000       0.0000       0.0000       0.0000       0.0000       0.0000       0.0000       0.0000       0.0000     
     29     (1,13,6)              174.50       0.0000       1.4086       0.0000       0.0000       0.0000       0.0000      -1.18604E-08  0.0000       0.0000      -175.91       0.0000       0.0000     
     30     (1,13,2)              0.0000      -189.26       2.9767       0.0000       0.0000       0.0000       0.0000       0.0000       0.0000       186.29       0.0000       0.0000       0.0000     
     31     (1,13,1)              189.26       0.0000       1.3236       0.0000       0.0000       0.0000       0.0000      -196.15       0.0000       5.5672       0.0000       0.0000       0.0000     
 --------------------------------------------------------------------------------------------------------------------------------------------------------------------------------------------------------



 LAK-1 PACKAGE - SUMMARY OF FLOWS FOR EACH CONTROL VOLUME   PERIOD      7   STEP       15
 -----------------------------------------------------------------------------------------------------------------------------------------------------------------------------------
                                                                                                                                                                          PERCENT   
   NUMBER       GWF        RAINFALL   EVAPORATION     RUNOFF     EXT INFLOW   WITHDRAWAL  EXT OUTFLOW    STORAGE      CONSTANT     FROM MVR      TO MVR      IN - OUT    DIFFERENCE 
 -----------------------------------------------------------------------------------------------------------------------------------------------------------------------------------
     1      -4.1225       5.0000      -1.0000       1.5000       0.0000       0.0000       0.0000      -6.54915E-03  0.0000       31.227      -32.598       9.82232E-08  2.60352E-07
     2       7.2619       3.6000      -3.3000       3.0000       0.0000      -0.12000     -2.33811E-08 -6.19120E-02  0.0000       175.91      -186.29       5.43853E-07  2.86589E-07
 -----------------------------------------------------------------------------------------------------------------------------------------------------------------------------------



 WATER MOVER PACKAGE (MVR) FLOW RATES   PERIOD      7   STEP       15
 --------------------------------------------------------------------------------------------------------------------------
                                               PROVIDER  AVAILABLE   PROVIDED                                     RECEIVER 
   NUMBER           PROVIDER LOCATION             ID        RATE       RATE            RECEIVER LOCATION             ID    
 --------------------------------------------------------------------------------------------------------------------------
     1                  E13/SFR-1                 23      31.2       31.2                  E13/LAK-1                 1     
     2                  E13/LAK-1                 1       32.6       32.6                  E13/SFR-1                 24    
     3                  E13/SFR-1                 29      176.       176.                  E13/LAK-1                 2     
     4                  E13/LAK-1                 2       186.       186.                  E13/SFR-1                 30    
     5                  E13/UZF-1                 1       0.00       0.00                  E13/SFR-1                 1     
     6                  E13/UZF-1                 2       0.00       0.00                  E13/SFR-1                 2     
     7                  E13/UZF-1                 3       0.00       0.00                  E13/SFR-1                 2     
     8                  E13/UZF-1                 4       0.00       0.00                  E13/SFR-1                 2     
     9                  E13/UZF-1                 5       0.00       0.00                  E13/SFR-1                 3     
     10                 E13/UZF-1                 6       0.00       0.00                  E13/SFR-1                 11    
     11                 E13/UZF-1                 7       0.00       0.00                  E13/SFR-1                 12    
     12                 E13/UZF-1                 8       0.00       0.00                  E13/SFR-1                 12    
     13                 E13/UZF-1                 9       0.00       0.00                  E13/SFR-1                 2     
     14                 E13/UZF-1                 10      0.00       0.00                  E13/SFR-1                 3     
     15                 E13/UZF-1                 11      0.00       0.00                  E13/SFR-1                 4     
     16                 E13/UZF-1                 12      0.00       0.00                  E13/SFR-1                 10    
     17                 E13/UZF-1                 13      0.00       0.00                  E13/SFR-1                 11    
     18                 E13/UZF-1                 14      0.00       0.00                  E13/SFR-1                 12    
     19                 E13/UZF-1                 15      0.00       0.00                  E13/SFR-1                 13    
     20                 E13/UZF-1                 16      0.00       0.00                  E13/LAK-1                 2     
     21                 E13/UZF-1                 17      0.00       0.00                  E13/LAK-1                 2     
     22                 E13/UZF-1                 18      0.00       0.00                  E13/SFR-1                 3     
     23                 E13/UZF-1                 19      0.00       0.00                  E13/SFR-1                 4     
     24                 E13/UZF-1                 20      0.00       0.00                  E13/SFR-1                 5     
     25                 E13/UZF-1                 21      0.00       0.00                  E13/SFR-1                 6     
     26                 E13/UZF-1                 22      0.00       0.00                  E13/SFR-1                 6     
     27                 E13/UZF-1                 23      0.00       0.00                  E13/SFR-1                 13    
     28                 E13/UZF-1                 24      0.00       0.00                  E13/SFR-1                 17    
     29                 E13/UZF-1                 25      0.00       0.00                  E13/LAK-1                 2     
     30                 E13/UZF-1                 26      0.00       0.00                  E13/LAK-1                 2     
     31                 E13/UZF-1                 27      0.00       0.00                  E13/LAK-1                 2     
     32                 E13/UZF-1                 28      0.00       0.00                  E13/LAK-1                 2     
     33                 E13/UZF-1                 29      0.00       0.00                  E13/SFR-1                 5     
     34                 E13/UZF-1                 30      0.00       0.00                  E13/SFR-1                 6     
     35                 E13/UZF-1                 31      0.00       0.00                  E13/SFR-1                 6     
     36                 E13/UZF-1                 32      0.00       0.00                  E13/SFR-1                 14    
     37                 E13/UZF-1                 33      0.00       0.00                  E13/SFR-1                 17    
     38                 E13/UZF-1                 34      0.00       0.00                  E13/SFR-1                 16    
     39                 E13/UZF-1                 35      0.00       0.00                  E13/LAK-1                 2     
     40                 E13/UZF-1                 36      0.00       0.00                  E13/LAK-1                 2     
     41                 E13/UZF-1                 37      0.00       0.00                  E13/LAK-1                 2     
     42                 E13/UZF-1                 38      0.00       0.00                  E13/LAK-1                 2     
     43                 E13/UZF-1                 39      0.00       0.00                  E13/LAK-1                 2     
     44                 E13/UZF-1                 40      0.00       0.00                  E13/SFR-1                 7     
     45                 E13/UZF-1                 41      0.00       0.00                  E13/SFR-1                 7     
     46                 E13/UZF-1                 42      0.00       0.00                  E13/SFR-1                 19    
     47                 E13/UZF-1                 43      0.00       0.00                  E13/SFR-1                 17    
     48                 E13/UZF-1                 44      0.00       0.00                  E13/SFR-1                 16    
     49                 E13/UZF-1                 45      0.00       0.00                  E13/LAK-1                 2     
     50                 E13/UZF-1                 46      0.00       0.00                  E13/LAK-1                 2     
     51                 E13/UZF-1                 47      0.00       0.00                  E13/LAK-1                 2     
     52                 E13/UZF-1                 48      0.00       0.00                  E13/LAK-1                 2     
     53                 E13/UZF-1                 49      0.00       0.00                  E13/LAK-1                 2     
     54                 E13/UZF-1                 50      0.00       0.00                  E13/SFR-1                 8     
     55                 E13/UZF-1                 51      0.00       0.00                  E13/SFR-1                 20    
     56                 E13/UZF-1                 52      0.00       0.00                  E13/SFR-1                 20    
     57                 E13/UZF-1                 53      0.00       0.00                  E13/SFR-1                 20    
     58                 E13/UZF-1                 54      0.00       0.00                  E13/LAK-1                 2     
     59                 E13/UZF-1                 55      0.00       0.00                  E13/LAK-1                 2     
     60                 E13/UZF-1                 56      0.00       0.00                  E13/LAK-1                 2     
     61                 E13/UZF-1                 57      0.00       0.00                  E13/LAK-1                 2     
     62                 E13/UZF-1                 58      0.00       0.00                  E13/SFR-1                 9     
     63                 E13/UZF-1                 59      0.00       0.00                  E13/SFR-1                 21    
     64                 E13/UZF-1                 60      0.00       0.00                  E13/SFR-1                 21    
     65                 E13/UZF-1                 61      0.00       0.00                  E13/SFR-1                 21    
     66                 E13/UZF-1                 62      0.00       0.00                  E13/LAK-1                 2     
     67                 E13/UZF-1                 63      0.00       0.00                  E13/LAK-1                 2     
     68                 E13/UZF-1                 64      0.00       0.00                  E13/LAK-1                 2     
     69                 E13/UZF-1                 65      0.00       0.00                  E13/LAK-1                 2     
     70                 E13/UZF-1                 66      0.00       0.00                  E13/SFR-1                 23    
     71                 E13/UZF-1                 67      0.00       0.00                  E13/LAK-1                 1     
     72                 E13/UZF-1                 68      0.00       0.00                  E13/LAK-1                 1     
     73                 E13/UZF-1                 69      0.00       0.00                  E13/LAK-1                 1     
     74                 E13/UZF-1                 70      0.00       0.00                  E13/LAK-1                 2     
     75                 E13/UZF-1                 71      0.00       0.00                  E13/LAK-1                 2     
     76                 E13/UZF-1                 72      0.00       0.00                  E13/LAK-1                 2     
     77                 E13/UZF-1                 73      0.00       0.00                  E13/LAK-1                 2     
     78                 E13/UZF-1                 74      0.00       0.00                  E13/LAK-1                 1     
     79                 E13/UZF-1                 75      0.00       0.00                  E13/LAK-1                 1     
     80                 E13/UZF-1                 76      0.00       0.00                  E13/LAK-1                 1     
     81                 E13/UZF-1                 77      0.00       0.00                  E13/LAK-1                 2     
     82                 E13/UZF-1                 78      0.00       0.00                  E13/SFR-1                 9     
     83                 E13/UZF-1                 79      0.00       0.00                  E13/LAK-1                 1     
     84                 E13/UZF-1                 80      0.00       0.00                  E13/SFR-1                 31    
     85                 E13/UZF-1                 81      0.00       0.00                  E13/SFR-1                 30    
     86                 E13/UZF-1                 82      0.00       0.00                  E13/SFR-1                 9     
     87                 E13/UZF-1                 83      0.00       0.00                  E13/SFR-1                 24    
     88                 E13/UZF-1                 84      0.00       0.00                  E13/LAK-1                 1     
     89                 E13/UZF-1                 85      0.00       0.00                  E13/LAK-1                 1     
     90                 E13/UZF-1                 86      5.57       5.57                  E13/SFR-1                 31    
     91                 E13/UZF-1                 87      0.00       0.00                  E13/SFR-1                 30    
     92                 E13/UZF-1                 88      0.00       0.00                  E13/SFR-1                 29    
     93                 E13/UZF-1                 89      0.00       0.00                  E13/SFR-1                 28    
     94                 E13/UZF-1                 90      0.00       0.00                  E13/SFR-1                 27    
     95                 E13/UZF-1                 91      0.00       0.00                  E13/SFR-1                 26    
     96                 E13/UZF-1                 92      0.00       0.00                  E13/SFR-1                 30    
     97                 E13/UZF-1                 93      0.00       0.00                  E13/LAK-1                 2     
     98                 E13/UZF-1                 94      0.00       0.00                  E13/SFR-1                 28    
     99                 E13/UZF-1                 95      0.00       0.00                  E13/SFR-1                 27    
    100                 E13/UZF-1                 96      0.00       0.00                  E13/SFR-1                 26    
    101                 E13/UZF-1                 97      0.00       0.00                  E13/LAK-1                 2     
    102                 E13/UZF-1                 98      0.00       0.00                  E13/LAK-1                 2     
    103                 E13/UZF-1                 99      0.00       0.00                  E13/LAK-1                 2     
    104                 E13/UZF-1                100      0.00       0.00                  E13/LAK-1                 2     
    105                 E13/WEL-1                 1       0.850      0.850                 E13/UZF-1                 38    
    106                 E13/WEL-1                 2       0.850      0.850                 E13/UZF-1                 39    
    107                 E13/WEL-1                 3       0.850      0.850                 E13/UZF-1                 48    
    108                 E13/WEL-1                 4       0.850      0.850                 E13/UZF-1                 49    
    109                 E13/WEL-1                 5       0.850      0.850                 E13/UZF-1                 56    
    110                 E13/WEL-1                 6       0.850      0.850                 E13/UZF-1                 57    
    111                 E13/WEL-1                 7       0.850      0.850                 E13/UZF-1                 64    
    112                 E13/WEL-1                 8       0.850      0.850                 E13/UZF-1                 65    
    113                 E13/WEL-1                 9       0.850      0.850                 E13/UZF-1                 72    
    114                 E13/WEL-1                 10      0.850      0.850                 E13/UZF-1                 73    
 --------------------------------------------------------------------------------------------------------------------------



 SFR PACKAGE (SFR-1) STAGES FOR EACH CONTROL VOLUME   PERIOD      7   STEP       15
 ------------------------------------------------------------------------------------------------------------------------------------------------------
                                                                                                                               STREAMBED    STREAMBED  
 NAME                                       NUMBER   CELLID                  STAGE        DEPTH        WIDTH       GWF HEAD   CONDUCTANCE    GRADIENT  
 ------------------------------------------------------------------------------------------------------------------------------------------------------
 ALLREACHES                                   1      (1,1,1)               1094.3       1.2349       12.000       1019.4       5.40000E-02  1.4116     
 ALLREACHES                                   2      (1,2,2)               1089.3       1.2262       12.000       1019.6       8.40000E-02  1.4087     
 ALLREACHES                                   3      (1,3,3)               1083.6       1.2163       12.000       1019.2       7.20000E-02  1.4054     
 ALLREACHES                                   4      (1,3,4)               1078.6       1.2075       12.000       1019.1       6.66000E-02  1.4025     
 ALLREACHES                                   5      (1,4,5)               1072.8       0.84113      12.000       1019.0       7.80000E-02  1.2804     
 ALLREACHES                                   6      (1,5,6)               1067.3       0.83133      12.000       1018.7       6.00000E-02  1.2771     
 ALLREACHES                                   7      (1,6,6)               1062.6       0.82276      12.000       1018.6       6.00000E-02  1.2743     
 ALLREACHES                                   8      (1,7,6)               1057.9       0.81415      12.000       1018.5       6.00000E-02  1.2714     
 ALLREACHES                                   9      (1,8,6)               1053.2       0.80551      12.000       1018.5       6.00000E-02  1.2685     
 ALLREACHES                                   10     (1,3,5)               1074.6       0.93630      9.6364       1018.3       7.22727E-03  1.4681     
 ALLREACHES                                   11     (1,3,6)               1071.9       0.98022      8.9091       1018.3       6.68182E-03  1.4901     
 ALLREACHES                                   12     (1,3,7)               1069.3       1.0277       8.2182       1018.3       5.54727E-03  1.5139     
 ALLREACHES                                   13     (1,4,8)               1066.5       1.0884       7.4545       1018.3       6.70909E-03  1.5442     
 ALLREACHES                                   14     (1,5,8)               1063.6       1.1639       6.6545       1018.5       4.99091E-03  1.5819     
 ALLREACHES                                   15     (1,6,8)               1061.8       1.2200       6.1455       1019.0       1.84364E-03  1.6100     
 ALLREACHES                                   16     (1,5,10)              1078.4       0.63679      10.000       1018.6       2.50000E-02  1.2123     
 ALLREACHES                                   17     (1,5,9)               1071.5       0.63155      10.000       1018.9       5.00000E-02  1.2105     
 ALLREACHES                                   18     (1,6,8)               1063.8       0.62558      10.000       1019.0       3.50000E-02  1.2085     
 ALLREACHES                                   19     (1,6,8)               1060.0       1.2846       10.000       1019.0       4.00000E-02  1.4282     
 ALLREACHES                                   20     (1,7,7)               1056.9       1.2770       10.000       1018.7       5.00000E-02  1.4257     
 ALLREACHES                                   21     (1,8,7)               1054.1       1.2697       10.000       1018.5       3.50000E-02  1.4232     
 ALLREACHES                                   22     (1,8,6)               1052.1       1.2646       10.000       1018.5       2.50000E-02  1.4215     
 ALLREACHES                                   23     (1,9,6)               1046.6       1.1396       12.000       1017.9       6.00000E-02  1.3799     
 ALLREACHES                                   24     (1,12,7)              1037.7       1.2500       12.000       1018.7       6.00000E-03  1.4167     
 ALLREACHES                                   25     (1,13,7)              1030.2       1.2494       12.000       1021.6       6.60000E-03  1.4165     
 ALLREACHES                                   26     (1,14,9)              1034.8       1.4870       60.000       1026.3       0.60000      1.4957     
 ALLREACHES                                   27     (1,13,8)              1031.5       1.4708       60.000       1023.4       0.60000      1.4903     
 ALLREACHES                                   28     (1,13,7)              1028.1       1.4546       60.000       1021.6       0.60000      1.4849     
 ALLREACHES                                   29     (1,13,6)              1013.9       0.90769      60.000       1016.3       0.60000     -0.78253    
 ALLREACHES                                   30     (1,13,2)              998.29       1.4168       60.000       1003.3       0.60000     -1.6537     
 ALLREACHES                                   31     (1,13,1)              993.33       1.4514       60.000       997.00       0.36000     -1.2256     
 ------------------------------------------------------------------------------------------------------------------------------------------------------



 LAK PACKAGE (LAK-1) STAGES FOR EACH CONTROL VOLUME   PERIOD      7   STEP       15
 --------------------------------------------------------------
   NUMBER      STAGE     SURFACE AREA WETTED AREA     VOLUME   
 --------------------------------------------------------------
     1       1041.3       1.00000E+08  1.01383E+08  4.27507E+09
     2       1001.4       3.00000E+08  3.01417E+08  5.29800E+09
 --------------------------------------------------------------



 HEAD WILL BE SAVED ON UNIT 1026 AT END OF TIME STEP   15, STRESS PERIOD    7


  SFR-1 BUDGET FOR ENTIRE MODEL AT END OF TIME STEP   15, STRESS PERIOD   7
  ------------------------------------------------------------------------------

     CUMULATIVE SFR-1      L**3       RATES FOR THIS TIME STEP      L**3/T
     ------------------                 ------------------------

           IN:                                      IN:
           ---                                      ---
                 GWF =   103786612.4947                   GWF =           5.7088
            RAINFALL =           0.0000              RAINFALL =           0.0000
         EVAPORATION =           0.0000           EVAPORATION =           0.0000
              RUNOFF =           0.0000                RUNOFF =           0.0000
          EXT-INFLOW =  3403260000.0000            EXT-INFLOW =         185.0000
         EXT-OUTFLOW =           0.0000           EXT-OUTFLOW =           0.0000
             STORAGE =           0.0000               STORAGE =           0.0000
            FROM-MVR =  4137837954.9603              FROM-MVR =         224.4507
              TO-MVR =           0.0000                TO-MVR =           0.0000

            TOTAL IN =  7644884567.4551              TOTAL IN =         415.1595

          OUT:                                     OUT:
          ----                                     ----
                 GWF =   218432706.5770                   GWF =          11.8739
            RAINFALL =           0.0000              RAINFALL =           0.0000
         EVAPORATION =           0.0000           EVAPORATION =           0.0000
              RUNOFF =           0.0000                RUNOFF =           0.0000
          EXT-INFLOW =           0.0000            EXT-INFLOW =           0.0000
         EXT-OUTFLOW =  3616267431.9031           EXT-OUTFLOW =         196.1530
             STORAGE =           0.0000               STORAGE =           0.0000
            FROM-MVR =           0.0000              FROM-MVR =           0.0000
              TO-MVR =  3810184428.9750                TO-MVR =         207.1326

           TOTAL OUT =  7644884567.4551             TOTAL OUT =         415.1595

            IN - OUT =           0.0000              IN - OUT =           0.0000

 PERCENT DISCREPANCY =           0.00     PERCENT DISCREPANCY =           0.00



  LAK-1 BUDGET FOR ENTIRE MODEL AT END OF TIME STEP   15, STRESS PERIOD   7
  ------------------------------------------------------------------------------

     CUMULATIVE LAK-1      L**3       RATES FOR THIS TIME STEP      L**3/T
     ------------------                 ------------------------

           IN:                                      IN:
           ---                                      ---
                 GWF =   133488195.4206                   GWF =           7.2619
            RAINFALL =   158205600.0000              RAINFALL =           8.6000
         EVAPORATION =           0.0000           EVAPORATION =           0.0000
              RUNOFF =    82782000.0000                RUNOFF =           4.5000
          EXT-INFLOW =           0.0000            EXT-INFLOW =           0.0000
          WITHDRAWAL =           0.0000            WITHDRAWAL =           0.0000
         EXT-OUTFLOW =           0.0000           EXT-OUTFLOW =           0.0000
             STORAGE =      279894.1678               STORAGE =           0.0000
            CONSTANT =           0.0000              CONSTANT =           0.0000
            FROM-MVR =  3810184428.9750              FROM-MVR =         207.1326
              TO-MVR =           0.0000                TO-MVR =           0.0000

            TOTAL IN =  4184940118.5633              TOTAL IN =         227.4945

          OUT:                                     OUT:
          ----                                     ----
                 GWF =    75699877.3901                   GWF =           4.1225
            RAINFALL =           0.0000              RAINFALL =           0.0000
         EVAPORATION =    79102800.0000           EVAPORATION =           4.3000
              RUNOFF =           0.0000                RUNOFF =           0.0000
          EXT-INFLOW =           0.0000            EXT-INFLOW =           0.0000
          WITHDRAWAL =     2207520.0000            WITHDRAWAL =           0.1200
         EXT-OUTFLOW =           1.1905           EXT-OUTFLOW =       2.3381E-08
             STORAGE =       63729.8507               STORAGE =       6.8461E-02
            CONSTANT =           0.0000              CONSTANT =           0.0000
            FROM-MVR =           0.0000              FROM-MVR =           0.0000
              TO-MVR =  4027866182.6866                TO-MVR =         218.8835

           TOTAL OUT =  4184940111.1178             TOTAL OUT =         227.4945

            IN - OUT =           7.4455              IN - OUT =       6.4208E-07

 PERCENT DISCREPANCY =           0.00     PERCENT DISCREPANCY =           0.00



  UZF-1 BUDGET FOR ENTIRE MODEL AT END OF TIME STEP   15, STRESS PERIOD   7
  ------------------------------------------------------------------------------

     CUMULATIVE UZF-1      L**3       RATES FOR THIS TIME STEP      L**3/T
     ------------------                 ------------------------

           IN:                                      IN:
           ---                                      ---
                 GWF =           0.0000                   GWF =           0.0000
        INFILTRATION =  2781101235.6000          INFILTRATION =          22.9500
             REJ-INF =           0.0000               REJ-INF =           0.0000
                UZET =           0.0000                  UZET =           0.0000
             STORAGE =   199142626.3480               STORAGE =         115.1301
            FROM-MVR =   111690000.0000              FROM-MVR =           8.5000
      REJ-INF-TO-MVR =           0.0000        REJ-INF-TO-MVR =           0.0000

            TOTAL IN =  3091933861.9480              TOTAL IN =         146.5801

          OUT:                                     OUT:
          ----                                     ----
                 GWF =    66249753.3294                   GWF =          16.7970
        INFILTRATION =           0.0000          INFILTRATION =           0.0000
             REJ-INF =          11.3835               REJ-INF =       1.5971E-09
                UZET =   379096932.6815                  UZET =          18.6887
             STORAGE =  2637498630.4465               STORAGE =         111.0194
            FROM-MVR =           0.0000              FROM-MVR =           0.0000
      REJ-INF-TO-MVR =     9088533.7044        REJ-INF-TO-MVR =       7.5000E-02

           TOTAL OUT =  3091933861.5452             TOTAL OUT =         146.5801

            IN - OUT =           0.4028              IN - OUT =      -1.1670E-07

 PERCENT DISCREPANCY =           0.00     PERCENT DISCREPANCY =          -0.00



  WATER MOVER BUDGET FOR ENTIRE MODEL AT END OF TIME STEP   15, STRESS PERIOD   7
  ------------------------------------------------------------------------------

     CUMULATIVE WATER MOVER      L**3       RATES FOR THIS TIME STEP      L**3/T
     ------------------                 ------------------------

           IN:                                      IN:
           ---                                      ---
               UZF-1 =   109971772.2738                 UZF-1 =           5.5672
               SFR-1 =  3810184428.9750                 SFR-1 =         207.1326
               LAK-1 =  4027866182.6866                 LAK-1 =         218.8835
               WEL-1 =   111690000.0000                 WEL-1 =           8.5000

            TOTAL IN =  8059712383.9353              TOTAL IN =         440.0833

          OUT:                                     OUT:
          ----                                     ----
               UZF-1 =   111690000.0000                 UZF-1 =           8.5000
               SFR-1 =  4137837954.9603                 SFR-1 =         224.4507
               LAK-1 =  3810184428.9750                 LAK-1 =         207.1326
               WEL-1 =           0.0000                 WEL-1 =           0.0000

           TOTAL OUT =  8059712383.9353             TOTAL OUT =         440.0833

            IN - OUT =           0.0000              IN - OUT =           0.0000

 PERCENT DISCREPANCY =           0.00     PERCENT DISCREPANCY =           0.00



  VOLUME BUDGET FOR ENTIRE MODEL AT END OF TIME STEP   15, STRESS PERIOD   7
  ---------------------------------------------------------------------------------------------------

     CUMULATIVE VOLUME      L**3       RATES FOR THIS TIME STEP      L**3/T          PACKAGE NAME    
     ------------------                 ------------------------                     ----------------

           IN:                                      IN:
           ---                                      ---
              STO-SS =      563346.1311                STO-SS =       2.0950E-02     STORAGE                          
              STO-SY =   151738721.6984                STO-SY =           8.4514     STORAGE                          
                 WEL =           0.0000                   WEL =           0.0000     WEL-1                            
          WEL-TO-MVR =           0.0000            WEL-TO-MVR =           0.0000     WEL-1                            
                 GHB =    13092115.9354                   GHB =           0.7124     GHB_0                            
                 SFR =   218432706.5770                   SFR =          11.8739     SFR-1                            
                 LAK =    75699877.3901                   LAK =           4.1225     LAK-1                            
           UZF-GWRCH =    66249753.3294             UZF-GWRCH =          16.7970     UZF-1                            
             UZF-GWD =           0.0000               UZF-GWD =           0.0000     UZF-1                            
      UZF-GWD TO-MVR =           0.0000        UZF-GWD TO-MVR =           0.0000     UZF-1                            
            UZF-GWET =           0.0000              UZF-GWET =           0.0000     UZF-1                            

            TOTAL IN =   525776521.0614              TOTAL IN =          41.9781

          OUT:                                     OUT:
          ----                                     ----
              STO-SS =      181939.1138                STO-SS =       5.9121E-02     STORAGE                          
              STO-SY =    59417118.3640                STO-SY =          14.0586     STORAGE                          
                 WEL =           0.0000                   WEL =           0.0000     WEL-1                            
          WEL-TO-MVR =   111690000.0000            WEL-TO-MVR =           8.5000     WEL-1                            
                 GHB =     6293561.7002                   GHB =           0.3421     GHB_0                            
                 SFR =   103786835.3616                   SFR =           5.7088     SFR-1                            
                 LAK =   133488195.4206                   LAK =           7.2619     LAK-1                            
           UZF-GWRCH =           0.0000             UZF-GWRCH =           0.0000     UZF-1                            
             UZF-GWD =          83.7884               UZF-GWD =       1.1695E-07     UZF-1                            
      UZF-GWD TO-MVR =   100883238.5694        UZF-GWD TO-MVR =           5.4922     UZF-1                            
            UZF-GWET =    10028440.7026              UZF-GWET =           0.5542     UZF-1                            

           TOTAL OUT =   525769413.0206             TOTAL OUT =          41.9770

            IN - OUT =        7108.0408              IN - OUT =       1.1823E-03

 PERCENT DISCREPANCY =           0.00     PERCENT DISCREPANCY =           0.00




         TIME SUMMARY AT END OF TIME STEP   15 IN STRESS PERIOD    7
                    SECONDS     MINUTES      HOURS       DAYS        YEARS
                    -----------------------------------------------------------
   TIME STEP LENGTH 1.75200E+05  2920.0      48.667      2.0278     5.55175E-03
 STRESS PERIOD TIME 2.62800E+06  43800.      730.00      30.417     8.32763E-02
         TOTAL TIME 1.83960E+07 3.06600E+05  5110.0      212.92     0.58293    


end timestep


start timestep kper="8" kstp="1" mode="normal"


 OUTPUT CONTROL FOR STRESS PERIOD 8 IS REPEATED USING SETTINGS FROM A PREVIOUS STRESS PERIOD.


 STRESS PERIOD 8 IS TRANSIENT


 REUSING MVRS FROM LAST STRESS PERIOD
 ----------------------------------
  WEL NO.    LAYER    ROW     COL  
 ----------------------------------
     1         1       4       8   
     2         1       4       9   
     3         1       5       8   
     4         1       5       9   
     5         1       6       6   
     6         1       6       7   
     7         1       7       4   
     8         1       7       5   
     9         1       8       2   
     10        1       8       3   
 ----------------------------------



 REUSING SFRS FROM LAST STRESS PERIOD

 REUSING LAKS FROM LAST STRESS PERIOD

end timestep


start timestep kper="8" kstp="2" mode="normal"


end timestep


start timestep kper="8" kstp="3" mode="normal"


end timestep


start timestep kper="8" kstp="4" mode="normal"


end timestep


start timestep kper="8" kstp="5" mode="normal"


end timestep


start timestep kper="8" kstp="6" mode="normal"


end timestep


start timestep kper="8" kstp="7" mode="normal"


end timestep


start timestep kper="8" kstp="8" mode="normal"


end timestep


start timestep kper="8" kstp="9" mode="normal"


end timestep


start timestep kper="8" kstp="10" mode="normal"


end timestep


start timestep kper="8" kstp="11" mode="normal"


end timestep


start timestep kper="8" kstp="12" mode="normal"


end timestep


start timestep kper="8" kstp="13" mode="normal"


end timestep


start timestep kper="8" kstp="14" mode="normal"


end timestep


start timestep kper="8" kstp="15" mode="normal"

 UBDSV1 SAVING           STO-SS ON UNIT   1025 AT TIME STEP     15, STRESS PERIOD      8
 UBDSV1 SAVING           STO-SY ON UNIT   1025 AT TIME STEP     15, STRESS PERIOD      8
 UBDSV1 SAVING     FLOW-JA-FACE ON UNIT   1025 AT TIME STEP     15, STRESS PERIOD      8
 UBDSV06 SAVING       DATA-SPDIS IN MODEL E13              PACKAGE NPF             CONNECTED TO MODEL E13              PACKAGE NPF              ON UNIT   1025 AT TIME STEP     15, STRESS PERIOD      8
 UBDSV06 SAVING              WEL IN MODEL E13              PACKAGE E13             CONNECTED TO MODEL E13              PACKAGE WEL-1            ON UNIT   1025 AT TIME STEP     15, STRESS PERIOD      8
 UBDSV06 SAVING       WEL-TO-MVR IN MODEL E13              PACKAGE E13             CONNECTED TO MODEL E13              PACKAGE WEL-1            ON UNIT   1025 AT TIME STEP     15, STRESS PERIOD      8
 UBDSV06 SAVING              GHB IN MODEL E13              PACKAGE E13             CONNECTED TO MODEL E13              PACKAGE GHB_0            ON UNIT   1025 AT TIME STEP     15, STRESS PERIOD      8
 UBDSV06 SAVING              SFR IN MODEL E13              PACKAGE E13             CONNECTED TO MODEL E13              PACKAGE SFR-1            ON UNIT   1025 AT TIME STEP     15, STRESS PERIOD      8
 UBDSV06 SAVING              LAK IN MODEL E13              PACKAGE E13             CONNECTED TO MODEL E13              PACKAGE LAK-1            ON UNIT   1025 AT TIME STEP     15, STRESS PERIOD      8
 UBDSV06 SAVING        UZF-GWRCH IN MODEL E13              PACKAGE E13             CONNECTED TO MODEL E13              PACKAGE UZF-1            ON UNIT   1025 AT TIME STEP     15, STRESS PERIOD      8
 UBDSV06 SAVING          UZF-GWD IN MODEL E13              PACKAGE E13             CONNECTED TO MODEL E13              PACKAGE UZF-1            ON UNIT   1025 AT TIME STEP     15, STRESS PERIOD      8
 UBDSV06 SAVING   UZF-GWD TO-MVR IN MODEL E13              PACKAGE E13             CONNECTED TO MODEL E13              PACKAGE UZF-1            ON UNIT   1025 AT TIME STEP     15, STRESS PERIOD      8
 UBDSV06 SAVING         UZF-GWET IN MODEL E13              PACKAGE E13             CONNECTED TO MODEL E13              PACKAGE UZF-1            ON UNIT   1025 AT TIME STEP     15, STRESS PERIOD      8
 UBDSV06 SAVING     FLOW-JA-FACE IN MODEL E13              PACKAGE SFR-1           CONNECTED TO MODEL E13              PACKAGE SFR-1            ON UNIT   1017 AT TIME STEP     15, STRESS PERIOD      8
 UBDSV06 SAVING              GWF IN MODEL E13              PACKAGE SFR-1           CONNECTED TO MODEL E13              PACKAGE E13              ON UNIT   1017 AT TIME STEP     15, STRESS PERIOD      8
 UBDSV06 SAVING         RAINFALL IN MODEL E13              PACKAGE SFR-1           CONNECTED TO MODEL E13              PACKAGE SFR-1            ON UNIT   1017 AT TIME STEP     15, STRESS PERIOD      8
 UBDSV06 SAVING      EVAPORATION IN MODEL E13              PACKAGE SFR-1           CONNECTED TO MODEL E13              PACKAGE SFR-1            ON UNIT   1017 AT TIME STEP     15, STRESS PERIOD      8
 UBDSV06 SAVING           RUNOFF IN MODEL E13              PACKAGE SFR-1           CONNECTED TO MODEL E13              PACKAGE SFR-1            ON UNIT   1017 AT TIME STEP     15, STRESS PERIOD      8
 UBDSV06 SAVING       EXT-INFLOW IN MODEL E13              PACKAGE SFR-1           CONNECTED TO MODEL E13              PACKAGE SFR-1            ON UNIT   1017 AT TIME STEP     15, STRESS PERIOD      8
 UBDSV06 SAVING      EXT-OUTFLOW IN MODEL E13              PACKAGE SFR-1           CONNECTED TO MODEL E13              PACKAGE SFR-1            ON UNIT   1017 AT TIME STEP     15, STRESS PERIOD      8
 UBDSV06 SAVING          STORAGE IN MODEL E13              PACKAGE SFR-1           CONNECTED TO MODEL E13              PACKAGE SFR-1            ON UNIT   1017 AT TIME STEP     15, STRESS PERIOD      8
 UBDSV06 SAVING         FROM-MVR IN MODEL E13              PACKAGE SFR-1           CONNECTED TO MODEL E13              PACKAGE SFR-1            ON UNIT   1017 AT TIME STEP     15, STRESS PERIOD      8
 UBDSV06 SAVING           TO-MVR IN MODEL E13              PACKAGE SFR-1           CONNECTED TO MODEL E13              PACKAGE SFR-1            ON UNIT   1017 AT TIME STEP     15, STRESS PERIOD      8
 UBDSV06 SAVING              GWF IN MODEL E13              PACKAGE LAK-1           CONNECTED TO MODEL E13              PACKAGE E13              ON UNIT   1019 AT TIME STEP     15, STRESS PERIOD      8
 UBDSV06 SAVING         RAINFALL IN MODEL E13              PACKAGE LAK-1           CONNECTED TO MODEL E13              PACKAGE LAK-1            ON UNIT   1019 AT TIME STEP     15, STRESS PERIOD      8
 UBDSV06 SAVING      EVAPORATION IN MODEL E13              PACKAGE LAK-1           CONNECTED TO MODEL E13              PACKAGE LAK-1            ON UNIT   1019 AT TIME STEP     15, STRESS PERIOD      8
 UBDSV06 SAVING           RUNOFF IN MODEL E13              PACKAGE LAK-1           CONNECTED TO MODEL E13              PACKAGE LAK-1            ON UNIT   1019 AT TIME STEP     15, STRESS PERIOD      8
 UBDSV06 SAVING       EXT-INFLOW IN MODEL E13              PACKAGE LAK-1           CONNECTED TO MODEL E13              PACKAGE LAK-1            ON UNIT   1019 AT TIME STEP     15, STRESS PERIOD      8
 UBDSV06 SAVING       WITHDRAWAL IN MODEL E13              PACKAGE LAK-1           CONNECTED TO MODEL E13              PACKAGE LAK-1            ON UNIT   1019 AT TIME STEP     15, STRESS PERIOD      8
 UBDSV06 SAVING      EXT-OUTFLOW IN MODEL E13              PACKAGE LAK-1           CONNECTED TO MODEL E13              PACKAGE LAK-1            ON UNIT   1019 AT TIME STEP     15, STRESS PERIOD      8
 UBDSV06 SAVING          STORAGE IN MODEL E13              PACKAGE LAK-1           CONNECTED TO MODEL E13              PACKAGE LAK-1            ON UNIT   1019 AT TIME STEP     15, STRESS PERIOD      8
 UBDSV06 SAVING         CONSTANT IN MODEL E13              PACKAGE LAK-1           CONNECTED TO MODEL E13              PACKAGE LAK-1            ON UNIT   1019 AT TIME STEP     15, STRESS PERIOD      8
 UBDSV06 SAVING         FROM-MVR IN MODEL E13              PACKAGE LAK-1           CONNECTED TO MODEL E13              PACKAGE LAK-1            ON UNIT   1019 AT TIME STEP     15, STRESS PERIOD      8
 UBDSV06 SAVING           TO-MVR IN MODEL E13              PACKAGE LAK-1           CONNECTED TO MODEL E13              PACKAGE LAK-1            ON UNIT   1019 AT TIME STEP     15, STRESS PERIOD      8
 UBDSV06 SAVING     FLOW-JA-FACE IN MODEL E13              PACKAGE UZF-1           CONNECTED TO MODEL E13              PACKAGE UZF-1            ON UNIT   1021 AT TIME STEP     15, STRESS PERIOD      8
 UBDSV06 SAVING              GWF IN MODEL E13              PACKAGE UZF-1           CONNECTED TO MODEL E13              PACKAGE E13              ON UNIT   1021 AT TIME STEP     15, STRESS PERIOD      8
 UBDSV06 SAVING     INFILTRATION IN MODEL E13              PACKAGE UZF-1           CONNECTED TO MODEL E13              PACKAGE UZF-1            ON UNIT   1021 AT TIME STEP     15, STRESS PERIOD      8
 UBDSV06 SAVING          REJ-INF IN MODEL E13              PACKAGE UZF-1           CONNECTED TO MODEL E13              PACKAGE UZF-1            ON UNIT   1021 AT TIME STEP     15, STRESS PERIOD      8
 UBDSV06 SAVING             UZET IN MODEL E13              PACKAGE UZF-1           CONNECTED TO MODEL E13              PACKAGE UZF-1            ON UNIT   1021 AT TIME STEP     15, STRESS PERIOD      8
 UBDSV06 SAVING          STORAGE IN MODEL E13              PACKAGE UZF-1           CONNECTED TO MODEL E13              PACKAGE UZF-1            ON UNIT   1021 AT TIME STEP     15, STRESS PERIOD      8
 UBDSV06 SAVING         FROM-MVR IN MODEL E13              PACKAGE UZF-1           CONNECTED TO MODEL E13              PACKAGE UZF-1            ON UNIT   1021 AT TIME STEP     15, STRESS PERIOD      8
 UBDSV06 SAVING   REJ-INF-TO-MVR IN MODEL E13              PACKAGE UZF-1           CONNECTED TO MODEL E13              PACKAGE UZF-1            ON UNIT   1021 AT TIME STEP     15, STRESS PERIOD      8
 UBDSV06 SAVING       MOVER-FLOW IN MODEL E13              PACKAGE UZF-1           CONNECTED TO MODEL E13              PACKAGE UZF-1            ON UNIT   1023 AT TIME STEP     15, STRESS PERIOD      8
 UBDSV06 SAVING       MOVER-FLOW IN MODEL E13              PACKAGE UZF-1           CONNECTED TO MODEL E13              PACKAGE SFR-1            ON UNIT   1023 AT TIME STEP     15, STRESS PERIOD      8
 UBDSV06 SAVING       MOVER-FLOW IN MODEL E13              PACKAGE UZF-1           CONNECTED TO MODEL E13              PACKAGE LAK-1            ON UNIT   1023 AT TIME STEP     15, STRESS PERIOD      8
 UBDSV06 SAVING       MOVER-FLOW IN MODEL E13              PACKAGE UZF-1           CONNECTED TO MODEL E13              PACKAGE WEL-1            ON UNIT   1023 AT TIME STEP     15, STRESS PERIOD      8
 UBDSV06 SAVING       MOVER-FLOW IN MODEL E13              PACKAGE SFR-1           CONNECTED TO MODEL E13              PACKAGE UZF-1            ON UNIT   1023 AT TIME STEP     15, STRESS PERIOD      8
 UBDSV06 SAVING       MOVER-FLOW IN MODEL E13              PACKAGE SFR-1           CONNECTED TO MODEL E13              PACKAGE SFR-1            ON UNIT   1023 AT TIME STEP     15, STRESS PERIOD      8
 UBDSV06 SAVING       MOVER-FLOW IN MODEL E13              PACKAGE SFR-1           CONNECTED TO MODEL E13              PACKAGE LAK-1            ON UNIT   1023 AT TIME STEP     15, STRESS PERIOD      8
 UBDSV06 SAVING       MOVER-FLOW IN MODEL E13              PACKAGE SFR-1           CONNECTED TO MODEL E13              PACKAGE WEL-1            ON UNIT   1023 AT TIME STEP     15, STRESS PERIOD      8
 UBDSV06 SAVING       MOVER-FLOW IN MODEL E13              PACKAGE LAK-1           CONNECTED TO MODEL E13              PACKAGE UZF-1            ON UNIT   1023 AT TIME STEP     15, STRESS PERIOD      8
 UBDSV06 SAVING       MOVER-FLOW IN MODEL E13              PACKAGE LAK-1           CONNECTED TO MODEL E13              PACKAGE SFR-1            ON UNIT   1023 AT TIME STEP     15, STRESS PERIOD      8
 UBDSV06 SAVING       MOVER-FLOW IN MODEL E13              PACKAGE LAK-1           CONNECTED TO MODEL E13              PACKAGE LAK-1            ON UNIT   1023 AT TIME STEP     15, STRESS PERIOD      8
 UBDSV06 SAVING       MOVER-FLOW IN MODEL E13              PACKAGE LAK-1           CONNECTED TO MODEL E13              PACKAGE WEL-1            ON UNIT   1023 AT TIME STEP     15, STRESS PERIOD      8
 UBDSV06 SAVING       MOVER-FLOW IN MODEL E13              PACKAGE WEL-1           CONNECTED TO MODEL E13              PACKAGE UZF-1            ON UNIT   1023 AT TIME STEP     15, STRESS PERIOD      8
 UBDSV06 SAVING       MOVER-FLOW IN MODEL E13              PACKAGE WEL-1           CONNECTED TO MODEL E13              PACKAGE SFR-1            ON UNIT   1023 AT TIME STEP     15, STRESS PERIOD      8
 UBDSV06 SAVING       MOVER-FLOW IN MODEL E13              PACKAGE WEL-1           CONNECTED TO MODEL E13              PACKAGE LAK-1            ON UNIT   1023 AT TIME STEP     15, STRESS PERIOD      8
 UBDSV06 SAVING       MOVER-FLOW IN MODEL E13              PACKAGE WEL-1           CONNECTED TO MODEL E13              PACKAGE WEL-1            ON UNIT   1023 AT TIME STEP     15, STRESS PERIOD      8

 WEL PACKAGE (WEL-1) FLOW RATES   PERIOD      8   STEP       15
 -----------------------------------------------
   NUMBER   CELLID                    RATE      
 -----------------------------------------------
     1      (1,6,4)               0.0000000     
     2      (1,6,5)               0.0000000     
     3      (1,7,4)               0.0000000     
     4      (1,7,5)               0.0000000     
     5      (1,8,4)               0.0000000     
     6      (1,8,5)               0.0000000     
     7      (1,9,4)               0.0000000     
     8      (1,9,5)               0.0000000     
     9      (1,10,4)              0.0000000     
     10     (1,10,5)              0.0000000     
 -----------------------------------------------




 WEL PACKAGE (WEL-1) FLOW RATES TO-MVR   PERIOD      8   STEP       15
 -----------------------------------------------
   NUMBER   CELLID                    RATE      
 -----------------------------------------------
     1      (1,6,4)               0.0000000     
     2      (1,6,5)               0.0000000     
     3      (1,7,4)               0.0000000     
     4      (1,7,5)               0.0000000     
     5      (1,8,4)               0.0000000     
     6      (1,8,5)               0.0000000     
     7      (1,9,4)               0.0000000     
     8      (1,9,5)               0.0000000     
     9      (1,10,4)              0.0000000     
     10     (1,10,5)              0.0000000     
 -----------------------------------------------




 SFR PACKAGE (SFR-1) FLOW RATES   PERIOD      8   STEP       15
 ----------------------------------------------------------------------------------------
   NUMBER   CELLID                    RATE       NAME                                    
 ----------------------------------------------------------------------------------------
     1      (1,1,1)               0.22868377     ALLREACHES                              
     2      (1,2,2)               0.35499870     ALLREACHES                              
     3      (1,3,3)               0.30357347     ALLREACHES                              
     4      (1,3,4)               0.28021936     ALLREACHES                              
     5      (1,4,5)               0.29960805     ALLREACHES                              
     6      (1,5,6)               0.22987955     ALLREACHES                              
     7      (1,6,6)               0.22936563     ALLREACHES                              
     8      (1,7,6)               0.22884928     ALLREACHES                              
     9      (1,8,6)               0.22833044     ALLREACHES                              
     10     (1,3,5)               2.12214188E-02 ALLREACHES                              
     11     (1,3,6)               1.99133007E-02 ALLREACHES                              
     12     (1,3,7)               1.67956407E-02 ALLREACHES                              
     13     (1,4,8)               2.07205450E-02 ALLREACHES                              
     14     (1,5,8)               1.57905563E-02 ALLREACHES                              
     15     (1,6,8)               5.93648362E-03 ALLREACHES                              
     16     (1,5,10)              9.09197693E-02 ALLREACHES                              
     17     (1,5,9)               0.18157734     ALLREACHES                              
     18     (1,6,8)               0.12689514     ALLREACHES                              
     19     (1,6,8)               0.17138468     ALLREACHES                              
     20     (1,7,7)               0.21384773     ALLREACHES                              
     21     (1,8,7)               0.14943953     ALLREACHES                              
     22     (1,8,6)               0.10661428     ALLREACHES                              
     23     (1,9,6)               0.24837387     ALLREACHES                              
     24     (1,12,7)              2.55025671E-02 ALLREACHES                              
     25     (1,13,7)              2.80487566E-02 ALLREACHES                              
     26     (1,14,9)              2.6922030      ALLREACHES                              
     27     (1,13,8)              2.6824902      ALLREACHES                              
     28     (1,13,7)              2.6727412      ALLREACHES                              
     29     (1,13,6)             -1.8178507      ALLREACHES                              
     30     (1,13,2)             -2.9422052      ALLREACHES                              
     31     (1,13,1)             -1.3227783      ALLREACHES                              
 ----------------------------------------------------------------------------------------




 LAK PACKAGE (LAK-1) FLOW RATES   PERIOD      8   STEP       15
 -----------------------------------------------
   NUMBER   CELLID                    RATE      
 -----------------------------------------------
     1      (1,9,7)               8.42262821E-03
     2      (1,10,6)              1.08840049E-02
     3      (2,10,7)              1.0138786     
     4      (1,9,8)               6.03080040E-03
     5      (1,10,9)              1.05171839E-04
     6      (2,10,8)              0.99916466    
     7      (1,11,6)              1.18312511E-02
     8      (1,12,7)              1.12102324E-02
     9      (2,11,7)              1.0084806     
     10     (1,11,9)              2.62785130E-03
     11     (1,12,8)              1.09795309E-02
     12     (2,11,8)              0.99143654    
     13     (1,10,3)             -1.10301465E-03
     14     (1,11,2)             -9.29214071E-04
     15     (2,11,3)             -0.61989448    
     16     (1,10,4)             -1.04211649E-03
     17     (2,11,4)             -0.64425084    
     18     (1,10,5)             -2.83684993E-03
     19     (1,11,6)             -3.97655905E-03
     20     (2,11,5)             -0.67359082    
     21     (1,12,2)             -3.56883510E-03
     22     (2,12,3)             -0.60018977    
     23     (2,12,4)             -0.63698092    
     24     (1,12,6)             -5.43251483E-03
     25     (2,12,5)             -0.67375670    
     26     (1,13,2)             -8.77463659E-04
     27     (2,13,3)             -0.59771207    
     28     (2,13,4)             -0.64245870    
     29     (1,13,6)             -6.19462619E-03
     30     (2,13,5)             -0.68340476    
     31     (1,14,2)             -4.32734681E-03
     32     (1,15,3)              0.0000000     
     33     (2,14,3)             -0.61957191    
     34     (1,15,4)              0.0000000     
     35     (2,14,4)             -0.65765385    
     36     (1,14,6)             -5.19448843E-03
     37     (1,15,5)              0.0000000     
     38     (2,14,5)             -0.69732502    
 -----------------------------------------------




 SFR-1 PACKAGE - SUMMARY OF FLOWS FOR EACH CONTROL VOLUME   PERIOD      8   STEP       15
 --------------------------------------------------------------------------------------------------------------------------------------------------------------------------------------------------------
                                                                                                                                                                                               PERCENT   
   NUMBER   CELLID                  INFLOW      OUTFLOW        GWF        RAINFALL   EVAPORATION     RUNOFF     EXT INFLOW  EXT OUTFLOW    STORAGE      FROM MVR      TO MVR      IN - OUT    DIFFERENCE 
 --------------------------------------------------------------------------------------------------------------------------------------------------------------------------------------------------------
     1      (1,1,1)               0.0000      -24.771      -0.22868      0.0000       0.0000       0.0000       25.000       0.0000       0.0000       0.0000       0.0000       0.0000       0.0000     
     2      (1,2,2)               24.771      -24.416      -0.35500      0.0000       0.0000       0.0000       0.0000       0.0000       0.0000       0.0000       0.0000       0.0000       0.0000     
     3      (1,3,3)               24.416      -24.113      -0.30357      0.0000       0.0000       0.0000       0.0000       0.0000       0.0000       0.0000       0.0000       0.0000       0.0000     
     4      (1,3,4)               24.113      -23.833      -0.28022      0.0000       0.0000       0.0000       0.0000       0.0000       0.0000       0.0000       0.0000       0.0000       0.0000     
     5      (1,4,5)               13.833      -13.533      -0.29961      0.0000       0.0000       0.0000       0.0000       0.0000       0.0000       0.0000       0.0000       0.0000       0.0000     
     6      (1,5,6)               13.533      -13.303      -0.22988      0.0000       0.0000       0.0000       0.0000       0.0000       0.0000       0.0000       0.0000       0.0000       0.0000     
     7      (1,6,6)               13.303      -13.074      -0.22937      0.0000       0.0000       0.0000       0.0000       0.0000       0.0000       0.0000       0.0000       0.0000       0.0000     
     8      (1,7,6)               13.074      -12.845      -0.22885      0.0000       0.0000       0.0000       0.0000       0.0000       0.0000       0.0000       0.0000       0.0000       0.0000     
     9      (1,8,6)               12.845      -12.616      -0.22833      0.0000       0.0000       0.0000       0.0000       0.0000       0.0000       0.0000       0.0000       0.0000       0.0000     
     10     (1,3,5)               10.000      -9.9788      -2.12214E-02  0.0000       0.0000       0.0000       0.0000       0.0000       0.0000       0.0000       0.0000       0.0000       0.0000     
     11     (1,3,6)               9.9788      -9.9589      -1.99133E-02  0.0000       0.0000       0.0000       0.0000       0.0000       0.0000       0.0000       0.0000       0.0000       0.0000     
     12     (1,3,7)               9.9589      -9.9421      -1.67956E-02  0.0000       0.0000       0.0000       0.0000       0.0000       0.0000       0.0000       0.0000       0.0000       0.0000     
     13     (1,4,8)               9.9421      -9.9213      -2.07205E-02  0.0000       0.0000       0.0000       0.0000       0.0000       0.0000       0.0000       0.0000       0.0000       0.0000     
     14     (1,5,8)               9.9213      -9.9056      -1.57906E-02  0.0000       0.0000       0.0000       0.0000       0.0000       0.0000       0.0000       0.0000       0.0000       0.0000     
     15     (1,6,8)               9.9056      -9.8996      -5.93648E-03  0.0000       0.0000       0.0000       0.0000       0.0000       0.0000       0.0000       0.0000       0.0000       0.0000     
     16     (1,5,10)              0.0000      -9.9091      -9.09198E-02  0.0000       0.0000       0.0000       10.000       0.0000       0.0000       0.0000       0.0000       0.0000       0.0000     
     17     (1,5,9)               9.9091      -9.7275      -0.18158      0.0000       0.0000       0.0000       0.0000       0.0000       0.0000       0.0000       0.0000       0.0000       0.0000     
     18     (1,6,8)               9.7275      -9.6006      -0.12690      0.0000       0.0000       0.0000       0.0000       0.0000       0.0000       0.0000       0.0000       0.0000       0.0000     
     19     (1,6,8)               19.500      -19.329      -0.17138      0.0000       0.0000       0.0000       0.0000       0.0000       0.0000       0.0000       0.0000       0.0000       0.0000     
     20     (1,7,7)               19.329      -19.115      -0.21385      0.0000       0.0000       0.0000       0.0000       0.0000       0.0000       0.0000       0.0000       0.0000       0.0000     
     21     (1,8,7)               19.115      -18.966      -0.14944      0.0000       0.0000       0.0000       0.0000       0.0000       0.0000       0.0000       0.0000       0.0000       0.0000     
     22     (1,8,6)               18.966      -18.859      -0.10661      0.0000       0.0000       0.0000       0.0000       0.0000       0.0000       0.0000       0.0000       0.0000       0.0000     
     23     (1,9,6)               31.475       0.0000      -0.24837      0.0000       0.0000       0.0000       0.0000       0.0000       0.0000       0.0000      -31.227       0.0000       0.0000     
     24     (1,12,7)              0.0000      -32.591      -2.55026E-02  0.0000       0.0000       0.0000       0.0000       0.0000       0.0000       32.617       0.0000       0.0000       0.0000     
     25     (1,13,7)              32.591      -32.563      -2.80488E-02  0.0000       0.0000       0.0000       0.0000       0.0000       0.0000       0.0000       0.0000       0.0000       0.0000     
     26     (1,14,9)              0.0000      -147.31      -2.6922       0.0000       0.0000       0.0000       150.00       0.0000       0.0000       0.0000       0.0000       0.0000       0.0000     
     27     (1,13,8)              147.31      -144.63      -2.6825       0.0000       0.0000       0.0000       0.0000       0.0000       0.0000       0.0000       0.0000       0.0000       0.0000     
     28     (1,13,7)              144.63      -141.95      -2.6727       0.0000       0.0000       0.0000       0.0000       0.0000       0.0000       0.0000       0.0000       0.0000       0.0000     
     29     (1,13,6)              174.52       0.0000       1.8179       0.0000       0.0000       0.0000       0.0000      -1.98207E-09  0.0000       0.0000      -176.33       0.0000       0.0000     
     30     (1,13,2)              0.0000      -189.68       2.9422       0.0000       0.0000       0.0000       0.0000       0.0000       0.0000       186.74       0.0000       0.0000       0.0000     
     31     (1,13,1)              189.68       0.0000       1.3228       0.0000       0.0000       0.0000       0.0000      -196.85       0.0000       5.8466       0.0000       0.0000       0.0000     
 --------------------------------------------------------------------------------------------------------------------------------------------------------------------------------------------------------



 LAK-1 PACKAGE - SUMMARY OF FLOWS FOR EACH CONTROL VOLUME   PERIOD      8   STEP       15
 -----------------------------------------------------------------------------------------------------------------------------------------------------------------------------------
                                                                                                                                                                          PERCENT   
   NUMBER       GWF        RAINFALL   EVAPORATION     RUNOFF     EXT INFLOW   WITHDRAWAL  EXT OUTFLOW    STORAGE      CONSTANT     FROM MVR      TO MVR      IN - OUT    DIFFERENCE 
 -----------------------------------------------------------------------------------------------------------------------------------------------------------------------------------
     1      -4.0751       5.0000      -1.0000       1.5000       0.0000       0.0000       0.0000      -3.50695E-02  0.0000       31.227      -32.617       1.54245E-08  4.08845E-08
     2       7.7823       3.6000      -3.3000       3.0000       0.0000      -0.12000     -1.06746E-08 -0.55488      0.0000       176.33      -186.74       1.40518E-07  7.36790E-08
 -----------------------------------------------------------------------------------------------------------------------------------------------------------------------------------



 WATER MOVER PACKAGE (MVR) FLOW RATES   PERIOD      8   STEP       15
 --------------------------------------------------------------------------------------------------------------------------
                                               PROVIDER  AVAILABLE   PROVIDED                                     RECEIVER 
   NUMBER           PROVIDER LOCATION             ID        RATE       RATE            RECEIVER LOCATION             ID    
 --------------------------------------------------------------------------------------------------------------------------
     1                  E13/SFR-1                 23      31.2       31.2                  E13/LAK-1                 1     
     2                  E13/LAK-1                 1       32.6       32.6                  E13/SFR-1                 24    
     3                  E13/SFR-1                 29      176.       176.                  E13/LAK-1                 2     
     4                  E13/LAK-1                 2       187.       187.                  E13/SFR-1                 30    
     5                  E13/UZF-1                 1       0.00       0.00                  E13/SFR-1                 1     
     6                  E13/UZF-1                 2       0.00       0.00                  E13/SFR-1                 2     
     7                  E13/UZF-1                 3       0.00       0.00                  E13/SFR-1                 2     
     8                  E13/UZF-1                 4       0.00       0.00                  E13/SFR-1                 2     
     9                  E13/UZF-1                 5       0.00       0.00                  E13/SFR-1                 3     
     10                 E13/UZF-1                 6       0.00       0.00                  E13/SFR-1                 11    
     11                 E13/UZF-1                 7       0.00       0.00                  E13/SFR-1                 12    
     12                 E13/UZF-1                 8       0.00       0.00                  E13/SFR-1                 12    
     13                 E13/UZF-1                 9       0.00       0.00                  E13/SFR-1                 2     
     14                 E13/UZF-1                 10      0.00       0.00                  E13/SFR-1                 3     
     15                 E13/UZF-1                 11      0.00       0.00                  E13/SFR-1                 4     
     16                 E13/UZF-1                 12      0.00       0.00                  E13/SFR-1                 10    
     17                 E13/UZF-1                 13      0.00       0.00                  E13/SFR-1                 11    
     18                 E13/UZF-1                 14      0.00       0.00                  E13/SFR-1                 12    
     19                 E13/UZF-1                 15      0.00       0.00                  E13/SFR-1                 13    
     20                 E13/UZF-1                 16      0.00       0.00                  E13/LAK-1                 2     
     21                 E13/UZF-1                 17      0.00       0.00                  E13/LAK-1                 2     
     22                 E13/UZF-1                 18      0.00       0.00                  E13/SFR-1                 3     
     23                 E13/UZF-1                 19      0.00       0.00                  E13/SFR-1                 4     
     24                 E13/UZF-1                 20      0.00       0.00                  E13/SFR-1                 5     
     25                 E13/UZF-1                 21      0.00       0.00                  E13/SFR-1                 6     
     26                 E13/UZF-1                 22      0.00       0.00                  E13/SFR-1                 6     
     27                 E13/UZF-1                 23      0.00       0.00                  E13/SFR-1                 13    
     28                 E13/UZF-1                 24      0.00       0.00                  E13/SFR-1                 17    
     29                 E13/UZF-1                 25      0.00       0.00                  E13/LAK-1                 2     
     30                 E13/UZF-1                 26      0.00       0.00                  E13/LAK-1                 2     
     31                 E13/UZF-1                 27      0.00       0.00                  E13/LAK-1                 2     
     32                 E13/UZF-1                 28      0.00       0.00                  E13/LAK-1                 2     
     33                 E13/UZF-1                 29      0.00       0.00                  E13/SFR-1                 5     
     34                 E13/UZF-1                 30      0.00       0.00                  E13/SFR-1                 6     
     35                 E13/UZF-1                 31      0.00       0.00                  E13/SFR-1                 6     
     36                 E13/UZF-1                 32      0.00       0.00                  E13/SFR-1                 14    
     37                 E13/UZF-1                 33      0.00       0.00                  E13/SFR-1                 17    
     38                 E13/UZF-1                 34      0.00       0.00                  E13/SFR-1                 16    
     39                 E13/UZF-1                 35      0.00       0.00                  E13/LAK-1                 2     
     40                 E13/UZF-1                 36      0.00       0.00                  E13/LAK-1                 2     
     41                 E13/UZF-1                 37      0.00       0.00                  E13/LAK-1                 2     
     42                 E13/UZF-1                 38      0.00       0.00                  E13/LAK-1                 2     
     43                 E13/UZF-1                 39      0.00       0.00                  E13/LAK-1                 2     
     44                 E13/UZF-1                 40      0.00       0.00                  E13/SFR-1                 7     
     45                 E13/UZF-1                 41      0.00       0.00                  E13/SFR-1                 7     
     46                 E13/UZF-1                 42      0.00       0.00                  E13/SFR-1                 19    
     47                 E13/UZF-1                 43      0.00       0.00                  E13/SFR-1                 17    
     48                 E13/UZF-1                 44      0.00       0.00                  E13/SFR-1                 16    
     49                 E13/UZF-1                 45      0.00       0.00                  E13/LAK-1                 2     
     50                 E13/UZF-1                 46      0.00       0.00                  E13/LAK-1                 2     
     51                 E13/UZF-1                 47      0.00       0.00                  E13/LAK-1                 2     
     52                 E13/UZF-1                 48      0.00       0.00                  E13/LAK-1                 2     
     53                 E13/UZF-1                 49      0.00       0.00                  E13/LAK-1                 2     
     54                 E13/UZF-1                 50      0.00       0.00                  E13/SFR-1                 8     
     55                 E13/UZF-1                 51      0.00       0.00                  E13/SFR-1                 20    
     56                 E13/UZF-1                 52      0.00       0.00                  E13/SFR-1                 20    
     57                 E13/UZF-1                 53      0.00       0.00                  E13/SFR-1                 20    
     58                 E13/UZF-1                 54      0.00       0.00                  E13/LAK-1                 2     
     59                 E13/UZF-1                 55      0.00       0.00                  E13/LAK-1                 2     
     60                 E13/UZF-1                 56      0.00       0.00                  E13/LAK-1                 2     
     61                 E13/UZF-1                 57      0.00       0.00                  E13/LAK-1                 2     
     62                 E13/UZF-1                 58      0.00       0.00                  E13/SFR-1                 9     
     63                 E13/UZF-1                 59      0.00       0.00                  E13/SFR-1                 21    
     64                 E13/UZF-1                 60      0.00       0.00                  E13/SFR-1                 21    
     65                 E13/UZF-1                 61      0.00       0.00                  E13/SFR-1                 21    
     66                 E13/UZF-1                 62      0.00       0.00                  E13/LAK-1                 2     
     67                 E13/UZF-1                 63      0.00       0.00                  E13/LAK-1                 2     
     68                 E13/UZF-1                 64      0.00       0.00                  E13/LAK-1                 2     
     69                 E13/UZF-1                 65      0.00       0.00                  E13/LAK-1                 2     
     70                 E13/UZF-1                 66      0.00       0.00                  E13/SFR-1                 23    
     71                 E13/UZF-1                 67      0.00       0.00                  E13/LAK-1                 1     
     72                 E13/UZF-1                 68      0.00       0.00                  E13/LAK-1                 1     
     73                 E13/UZF-1                 69      0.00       0.00                  E13/LAK-1                 1     
     74                 E13/UZF-1                 70      0.00       0.00                  E13/LAK-1                 2     
     75                 E13/UZF-1                 71      0.00       0.00                  E13/LAK-1                 2     
     76                 E13/UZF-1                 72      0.00       0.00                  E13/LAK-1                 2     
     77                 E13/UZF-1                 73      0.00       0.00                  E13/LAK-1                 2     
     78                 E13/UZF-1                 74      0.00       0.00                  E13/LAK-1                 1     
     79                 E13/UZF-1                 75      0.00       0.00                  E13/LAK-1                 1     
     80                 E13/UZF-1                 76      0.00       0.00                  E13/LAK-1                 1     
     81                 E13/UZF-1                 77      0.00       0.00                  E13/LAK-1                 2     
     82                 E13/UZF-1                 78      0.00       0.00                  E13/SFR-1                 9     
     83                 E13/UZF-1                 79      0.00       0.00                  E13/LAK-1                 1     
     84                 E13/UZF-1                 80      0.00       0.00                  E13/SFR-1                 31    
     85                 E13/UZF-1                 81      0.00       0.00                  E13/SFR-1                 30    
     86                 E13/UZF-1                 82      0.00       0.00                  E13/SFR-1                 9     
     87                 E13/UZF-1                 83      0.00       0.00                  E13/SFR-1                 24    
     88                 E13/UZF-1                 84      0.00       0.00                  E13/LAK-1                 1     
     89                 E13/UZF-1                 85      0.00       0.00                  E13/LAK-1                 1     
     90                 E13/UZF-1                 86      5.85       5.85                  E13/SFR-1                 31    
     91                 E13/UZF-1                 87      0.00       0.00                  E13/SFR-1                 30    
     92                 E13/UZF-1                 88      0.00       0.00                  E13/SFR-1                 29    
     93                 E13/UZF-1                 89      0.00       0.00                  E13/SFR-1                 28    
     94                 E13/UZF-1                 90      0.00       0.00                  E13/SFR-1                 27    
     95                 E13/UZF-1                 91      0.00       0.00                  E13/SFR-1                 26    
     96                 E13/UZF-1                 92      0.00       0.00                  E13/SFR-1                 30    
     97                 E13/UZF-1                 93      0.00       0.00                  E13/LAK-1                 2     
     98                 E13/UZF-1                 94      0.00       0.00                  E13/SFR-1                 28    
     99                 E13/UZF-1                 95      0.00       0.00                  E13/SFR-1                 27    
    100                 E13/UZF-1                 96      0.00       0.00                  E13/SFR-1                 26    
    101                 E13/UZF-1                 97      0.00       0.00                  E13/LAK-1                 2     
    102                 E13/UZF-1                 98      0.00       0.00                  E13/LAK-1                 2     
    103                 E13/UZF-1                 99      0.00       0.00                  E13/LAK-1                 2     
    104                 E13/UZF-1                100      0.00       0.00                  E13/LAK-1                 2     
    105                 E13/WEL-1                 1       0.00       0.00                  E13/UZF-1                 38    
    106                 E13/WEL-1                 2       0.00       0.00                  E13/UZF-1                 39    
    107                 E13/WEL-1                 3       0.00       0.00                  E13/UZF-1                 48    
    108                 E13/WEL-1                 4       0.00       0.00                  E13/UZF-1                 49    
    109                 E13/WEL-1                 5       0.00       0.00                  E13/UZF-1                 56    
    110                 E13/WEL-1                 6       0.00       0.00                  E13/UZF-1                 57    
    111                 E13/WEL-1                 7       0.00       0.00                  E13/UZF-1                 64    
    112                 E13/WEL-1                 8       0.00       0.00                  E13/UZF-1                 65    
    113                 E13/WEL-1                 9       0.00       0.00                  E13/UZF-1                 72    
    114                 E13/WEL-1                 10      0.00       0.00                  E13/UZF-1                 73    
 --------------------------------------------------------------------------------------------------------------------------



 SFR PACKAGE (SFR-1) STAGES FOR EACH CONTROL VOLUME   PERIOD      8   STEP       15
 ------------------------------------------------------------------------------------------------------------------------------------------------------
                                                                                                                               STREAMBED    STREAMBED  
 NAME                                       NUMBER   CELLID                  STAGE        DEPTH        WIDTH       GWF HEAD   CONDUCTANCE    GRADIENT  
 ------------------------------------------------------------------------------------------------------------------------------------------------------
 ALLREACHES                                   1      (1,1,1)               1094.3       1.2349       12.000       1019.3       5.40000E-02  1.4116     
 ALLREACHES                                   2      (1,2,2)               1089.3       1.2262       12.000       1019.6       8.40000E-02  1.4087     
 ALLREACHES                                   3      (1,3,3)               1083.6       1.2163       12.000       1019.3       7.20000E-02  1.4054     
 ALLREACHES                                   4      (1,3,4)               1078.6       1.2075       12.000       1019.6       6.66000E-02  1.4025     
 ALLREACHES                                   5      (1,4,5)               1072.8       0.84113      12.000       1019.5       7.80000E-02  1.2804     
 ALLREACHES                                   6      (1,5,6)               1067.3       0.83133      12.000       1018.9       6.00000E-02  1.2771     
 ALLREACHES                                   7      (1,6,6)               1062.6       0.82276      12.000       1018.6       6.00000E-02  1.2743     
 ALLREACHES                                   8      (1,7,6)               1057.9       0.81415      12.000       1018.5       6.00000E-02  1.2714     
 ALLREACHES                                   9      (1,8,6)               1053.2       0.80551      12.000       1018.4       6.00000E-02  1.2685     
 ALLREACHES                                   10     (1,3,5)               1074.6       0.93630      9.6364       1019.6       7.22727E-03  1.4681     
 ALLREACHES                                   11     (1,3,6)               1071.9       0.98022      8.9091       1019.5       6.68182E-03  1.4901     
 ALLREACHES                                   12     (1,3,7)               1069.3       1.0277       8.2182       1018.7       5.54727E-03  1.5139     
 ALLREACHES                                   13     (1,4,8)               1066.5       1.0884       7.4545       1018.4       6.70909E-03  1.5442     
 ALLREACHES                                   14     (1,5,8)               1063.6       1.1639       6.6545       1018.4       4.99091E-03  1.5819     
 ALLREACHES                                   15     (1,6,8)               1061.8       1.2200       6.1455       1019.0       1.84364E-03  1.6100     
 ALLREACHES                                   16     (1,5,10)              1078.4       0.63679      10.000       1018.6       2.50000E-02  1.2123     
 ALLREACHES                                   17     (1,5,9)               1071.5       0.63155      10.000       1018.8       5.00000E-02  1.2105     
 ALLREACHES                                   18     (1,6,8)               1063.8       0.62558      10.000       1019.0       3.50000E-02  1.2085     
 ALLREACHES                                   19     (1,6,8)               1060.0       1.2846       10.000       1019.0       4.00000E-02  1.4282     
 ALLREACHES                                   20     (1,7,7)               1056.9       1.2770       10.000       1018.7       5.00000E-02  1.4257     
 ALLREACHES                                   21     (1,8,7)               1054.1       1.2697       10.000       1018.4       3.50000E-02  1.4232     
 ALLREACHES                                   22     (1,8,6)               1052.1       1.2646       10.000       1018.4       2.50000E-02  1.4215     
 ALLREACHES                                   23     (1,9,6)               1046.6       1.1396       12.000       1017.9       6.00000E-02  1.3799     
 ALLREACHES                                   24     (1,12,7)              1037.7       1.2504       12.000       1018.8       6.00000E-03  1.4168     
 ALLREACHES                                   25     (1,13,7)              1030.2       1.2498       12.000       1022.4       6.60000E-03  1.4166     
 ALLREACHES                                   26     (1,14,9)              1034.8       1.4870       60.000       1026.3       0.60000      1.4957     
 ALLREACHES                                   27     (1,13,8)              1031.5       1.4708       60.000       1023.5       0.60000      1.4903     
 ALLREACHES                                   28     (1,13,7)              1028.1       1.4546       60.000       1022.4       0.60000      1.4849     
 ALLREACHES                                   29     (1,13,6)              1013.9       0.90838      60.000       1016.9       0.60000     -1.0099     
 ALLREACHES                                   30     (1,13,2)              998.29       1.4187       60.000       1003.2       0.60000     -1.6346     
 ALLREACHES                                   31     (1,13,1)              993.33       1.4545       60.000       997.00       0.36000     -1.2248     
 ------------------------------------------------------------------------------------------------------------------------------------------------------



 LAK PACKAGE (LAK-1) STAGES FOR EACH CONTROL VOLUME   PERIOD      8   STEP       15
 --------------------------------------------------------------
   NUMBER      STAGE     SURFACE AREA WETTED AREA     VOLUME   
 --------------------------------------------------------------
     1       1041.3       1.00000E+08  1.01383E+08  4.27511E+09
     2       1001.4       3.00000E+08  3.01452E+08  5.29862E+09
 --------------------------------------------------------------



 HEAD WILL BE SAVED ON UNIT 1026 AT END OF TIME STEP   15, STRESS PERIOD    8


  SFR-1 BUDGET FOR ENTIRE MODEL AT END OF TIME STEP   15, STRESS PERIOD   8
  ------------------------------------------------------------------------------

     CUMULATIVE SFR-1      L**3       RATES FOR THIS TIME STEP      L**3/T
     ------------------                 ------------------------

           IN:                                      IN:
           ---                                      ---
                 GWF =   119087031.2870                   GWF =           6.0828
            RAINFALL =           0.0000              RAINFALL =           0.0000
         EVAPORATION =           0.0000           EVAPORATION =           0.0000
              RUNOFF =           0.0000                RUNOFF =           0.0000
          EXT-INFLOW =  3889440000.0000            EXT-INFLOW =         185.0000
         EXT-OUTFLOW =       6.4949E-04           EXT-OUTFLOW =           0.0000
             STORAGE =           0.0000               STORAGE =           0.0000
            FROM-MVR =  4728392163.2409              FROM-MVR =         225.2047
              TO-MVR =           0.0000                TO-MVR =           0.0000

            TOTAL IN =  8736919194.5286              TOTAL IN =         416.2876

          OUT:                                     OUT:
          ----                                     ----
                 GWF =   249637370.6820                   GWF =          11.8739
            RAINFALL =           0.0000              RAINFALL =           0.0000
         EVAPORATION =           0.0000           EVAPORATION =           0.0000
              RUNOFF =           0.0000                RUNOFF =           0.0000
          EXT-INFLOW =           0.0000            EXT-INFLOW =           0.0000
         EXT-OUTFLOW =  4132347401.4328           EXT-OUTFLOW =         196.8528
             STORAGE =           0.0000               STORAGE =           0.0000
            FROM-MVR =           0.0000              FROM-MVR =           0.0000
              TO-MVR =  4354934422.4138                TO-MVR =         207.5609

           TOTAL OUT =  8736919194.5286             TOTAL OUT =         416.2876

            IN - OUT =      -1.9073E-06              IN - OUT =           0.0000

 PERCENT DISCREPANCY =          -0.00     PERCENT DISCREPANCY =           0.00



  LAK-1 BUDGET FOR ENTIRE MODEL AT END OF TIME STEP   15, STRESS PERIOD   8
  ------------------------------------------------------------------------------

     CUMULATIVE LAK-1      L**3       RATES FOR THIS TIME STEP      L**3/T
     ------------------                 ------------------------

           IN:                                      IN:
           ---                                      ---
                 GWF =   153010370.0609                   GWF =           7.7823
            RAINFALL =   180806400.0000              RAINFALL =           8.6000
         EVAPORATION =           0.0000           EVAPORATION =           0.0000
              RUNOFF =    94608000.0000                RUNOFF =           4.5000
          EXT-INFLOW =           0.0000            EXT-INFLOW =           0.0000
          WITHDRAWAL =           0.0000            WITHDRAWAL =           0.0000
         EXT-OUTFLOW =           0.0000           EXT-OUTFLOW =           0.0000
             STORAGE =      279894.1678               STORAGE =           0.0000
            CONSTANT =           0.0000              CONSTANT =           0.0000
            FROM-MVR =  4354934422.4138              FROM-MVR =         207.5609
              TO-MVR =           0.0000                TO-MVR =           0.0000

            TOTAL IN =  4783639086.6425              TOTAL IN =         228.4431

          OUT:                                     OUT:
          ----                                     ----
                 GWF =    86488745.1919                   GWF =           4.0751
            RAINFALL =           0.0000              RAINFALL =           0.0000
         EVAPORATION =    90403200.0000           EVAPORATION =           4.3000
              RUNOFF =           0.0000                RUNOFF =           0.0000
          EXT-INFLOW =           0.0000            EXT-INFLOW =           0.0000
          WITHDRAWAL =     2522880.0000            WITHDRAWAL =           0.1200
         EXT-OUTFLOW =           1.2546           EXT-OUTFLOW =       1.0675E-08
             STORAGE =      727909.7411               STORAGE =           0.5899
            CONSTANT =           0.0000              CONSTANT =           0.0000
            FROM-MVR =           0.0000              FROM-MVR =           0.0000
              TO-MVR =  4603496342.1082                TO-MVR =         219.3581

           TOTAL OUT =  4783639078.2958             TOTAL OUT =         228.4431

            IN - OUT =           8.3467              IN - OUT =       1.5594E-07

 PERCENT DISCREPANCY =           0.00     PERCENT DISCREPANCY =           0.00



  UZF-1 BUDGET FOR ENTIRE MODEL AT END OF TIME STEP   15, STRESS PERIOD   8
  ------------------------------------------------------------------------------

     CUMULATIVE UZF-1      L**3       RATES FOR THIS TIME STEP      L**3/T
     ------------------                 ------------------------

           IN:                                      IN:
           ---                                      ---
                 GWF =           0.0000                   GWF =           0.0000
        INFILTRATION =  2881622235.6000          INFILTRATION =          38.2500
             REJ-INF =           0.0000               REJ-INF =           0.0000
                UZET =           0.0000                  UZET =           0.0000
             STORAGE =   457367258.9215               STORAGE =         103.6967
            FROM-MVR =   111690000.0000              FROM-MVR =           0.0000
      REJ-INF-TO-MVR =           0.0000        REJ-INF-TO-MVR =           0.0000

            TOTAL IN =  3450679494.5215              TOTAL IN =         141.9467

          OUT:                                     OUT:
          ----                                     ----
                 GWF =   189433601.4902                   GWF =          60.5049
        INFILTRATION =           0.0000          INFILTRATION =           0.0000
             REJ-INF =          11.3925               REJ-INF =       1.1484E-09
                UZET =   430138238.4131                  UZET =          19.9594
             STORAGE =  2821690601.0014               STORAGE =          61.3575
            FROM-MVR =           0.0000              FROM-MVR =           0.0000
      REJ-INF-TO-MVR =     9417033.6953        REJ-INF-TO-MVR =           0.1250

           TOTAL OUT =  3450679485.9925             TOTAL OUT =         141.9467

            IN - OUT =           8.5290              IN - OUT =       3.2281E-06

 PERCENT DISCREPANCY =           0.00     PERCENT DISCREPANCY =           0.00



  WATER MOVER BUDGET FOR ENTIRE MODEL AT END OF TIME STEP   15, STRESS PERIOD   8
  ------------------------------------------------------------------------------

     CUMULATIVE WATER MOVER      L**3       RATES FOR THIS TIME STEP      L**3/T
     ------------------                 ------------------------

           IN:                                      IN:
           ---                                      ---
               UZF-1 =   124895821.1328                 UZF-1 =           5.8466
               SFR-1 =  4354934422.4138                 SFR-1 =         207.5609
               LAK-1 =  4603496342.1082                 LAK-1 =         219.3581
               WEL-1 =   111690000.0000                 WEL-1 =           0.0000

            TOTAL IN =  9195016585.6548              TOTAL IN =         432.7656

          OUT:                                     OUT:
          ----                                     ----
               UZF-1 =   111690000.0000                 UZF-1 =           0.0000
               SFR-1 =  4728392163.2409                 SFR-1 =         225.2047
               LAK-1 =  4354934422.4138                 LAK-1 =         207.5609
               WEL-1 =           0.0000                 WEL-1 =           0.0000

           TOTAL OUT =  9195016585.6548             TOTAL OUT =         432.7656

            IN - OUT =           0.0000              IN - OUT =           0.0000

 PERCENT DISCREPANCY =           0.00     PERCENT DISCREPANCY =           0.00



  VOLUME BUDGET FOR ENTIRE MODEL AT END OF TIME STEP   15, STRESS PERIOD   8
  ---------------------------------------------------------------------------------------------------

     CUMULATIVE VOLUME      L**3       RATES FOR THIS TIME STEP      L**3/T          PACKAGE NAME    
     ------------------                 ------------------------                     ----------------

           IN:                                      IN:
           ---                                      ---
              STO-SS =      577122.7823                STO-SS =       3.4357E-03     STORAGE                          
              STO-SY =   160403070.1096                STO-SY =           3.2690     STORAGE                          
                 WEL =           0.0000                   WEL =           0.0000     WEL-1                            
          WEL-TO-MVR =           0.0000            WEL-TO-MVR =           0.0000     WEL-1                            
                 GHB =    14960908.5752                   GHB =           0.7095     GHB_0                            
                 SFR =   249637370.6820                   SFR =          11.8739     SFR-1                            
                 LAK =    86488745.1919                   LAK =           4.0751     LAK-1                            
           UZF-GWRCH =   189433601.4902             UZF-GWRCH =          60.5049     UZF-1                            
             UZF-GWD =           0.0000               UZF-GWD =           0.0000     UZF-1                            
      UZF-GWD TO-MVR =           0.0000        UZF-GWD TO-MVR =           0.0000     UZF-1                            
            UZF-GWET =           0.0000              UZF-GWET =           0.0000     UZF-1                            

            TOTAL IN =   701500818.8312              TOTAL IN =          80.4358

          OUT:                                     OUT:
          ----                                     ----
              STO-SS =      994916.6923                STO-SS =           0.4458     STORAGE                          
              STO-SY =   182565349.7809                STO-SY =          59.5033     STORAGE                          
                 WEL =           0.0000                   WEL =           0.0000     WEL-1                            
          WEL-TO-MVR =   111690000.0000            WEL-TO-MVR =           0.0000     WEL-1                            
                 GHB =     7192667.3441                   GHB =           0.3421     GHB_0                            
                 SFR =   119087254.4463                   SFR =           6.0828     SFR-1                            
                 LAK =   153010370.0609                   LAK =           7.7823     LAK-1                            
           UZF-GWRCH =           0.0000             UZF-GWRCH =           0.0000     UZF-1                            
             UZF-GWD =          84.1895               UZF-GWD =       5.2567E-08     UZF-1                            
      UZF-GWD TO-MVR =   115478787.4375        UZF-GWD TO-MVR =           5.7216     UZF-1                            
            UZF-GWET =    11472588.2696              UZF-GWET =           0.5572     UZF-1                            

           TOTAL OUT =   701492018.2212             TOTAL OUT =          80.4352

            IN - OUT =        8800.6100              IN - OUT =       6.0908E-04

 PERCENT DISCREPANCY =           0.00     PERCENT DISCREPANCY =           0.00




         TIME SUMMARY AT END OF TIME STEP   15 IN STRESS PERIOD    8
                    SECONDS     MINUTES      HOURS       DAYS        YEARS
                    -----------------------------------------------------------
   TIME STEP LENGTH 1.75200E+05  2920.0      48.667      2.0278     5.55175E-03
 STRESS PERIOD TIME 2.62800E+06  43800.      730.00      30.417     8.32763E-02
         TOTAL TIME 2.10240E+07 3.50400E+05  5840.0      243.33     0.66621    


end timestep


start timestep kper="9" kstp="1" mode="normal"


 OUTPUT CONTROL FOR STRESS PERIOD 9 IS REPEATED USING SETTINGS FROM A PREVIOUS STRESS PERIOD.


 STRESS PERIOD 9 IS TRANSIENT


 REUSING MVRS FROM LAST STRESS PERIOD
 ----------------------------------
  WEL NO.    LAYER    ROW     COL  
 ----------------------------------
     1         1       4       8   
     2         1       4       9   
     3         1       5       8   
     4         1       5       9   
     5         1       6       6   
     6         1       6       7   
     7         1       7       4   
     8         1       7       5   
     9         1       8       2   
     10        1       8       3   
 ----------------------------------



 REUSING SFRS FROM LAST STRESS PERIOD

 REUSING LAKS FROM LAST STRESS PERIOD

end timestep


start timestep kper="9" kstp="2" mode="normal"


end timestep


start timestep kper="9" kstp="3" mode="normal"


end timestep


start timestep kper="9" kstp="4" mode="normal"


end timestep


start timestep kper="9" kstp="5" mode="normal"


end timestep


start timestep kper="9" kstp="6" mode="normal"


end timestep


start timestep kper="9" kstp="7" mode="normal"


end timestep


start timestep kper="9" kstp="8" mode="normal"


end timestep


start timestep kper="9" kstp="9" mode="normal"


end timestep


start timestep kper="9" kstp="10" mode="normal"


end timestep


start timestep kper="9" kstp="11" mode="normal"


end timestep


start timestep kper="9" kstp="12" mode="normal"


end timestep


start timestep kper="9" kstp="13" mode="normal"


end timestep


start timestep kper="9" kstp="14" mode="normal"


end timestep


start timestep kper="9" kstp="15" mode="normal"

 UBDSV1 SAVING           STO-SS ON UNIT   1025 AT TIME STEP     15, STRESS PERIOD      9
 UBDSV1 SAVING           STO-SY ON UNIT   1025 AT TIME STEP     15, STRESS PERIOD      9
 UBDSV1 SAVING     FLOW-JA-FACE ON UNIT   1025 AT TIME STEP     15, STRESS PERIOD      9
 UBDSV06 SAVING       DATA-SPDIS IN MODEL E13              PACKAGE NPF             CONNECTED TO MODEL E13              PACKAGE NPF              ON UNIT   1025 AT TIME STEP     15, STRESS PERIOD      9
 UBDSV06 SAVING              WEL IN MODEL E13              PACKAGE E13             CONNECTED TO MODEL E13              PACKAGE WEL-1            ON UNIT   1025 AT TIME STEP     15, STRESS PERIOD      9
 UBDSV06 SAVING       WEL-TO-MVR IN MODEL E13              PACKAGE E13             CONNECTED TO MODEL E13              PACKAGE WEL-1            ON UNIT   1025 AT TIME STEP     15, STRESS PERIOD      9
 UBDSV06 SAVING              GHB IN MODEL E13              PACKAGE E13             CONNECTED TO MODEL E13              PACKAGE GHB_0            ON UNIT   1025 AT TIME STEP     15, STRESS PERIOD      9
 UBDSV06 SAVING              SFR IN MODEL E13              PACKAGE E13             CONNECTED TO MODEL E13              PACKAGE SFR-1            ON UNIT   1025 AT TIME STEP     15, STRESS PERIOD      9
 UBDSV06 SAVING              LAK IN MODEL E13              PACKAGE E13             CONNECTED TO MODEL E13              PACKAGE LAK-1            ON UNIT   1025 AT TIME STEP     15, STRESS PERIOD      9
 UBDSV06 SAVING        UZF-GWRCH IN MODEL E13              PACKAGE E13             CONNECTED TO MODEL E13              PACKAGE UZF-1            ON UNIT   1025 AT TIME STEP     15, STRESS PERIOD      9
 UBDSV06 SAVING          UZF-GWD IN MODEL E13              PACKAGE E13             CONNECTED TO MODEL E13              PACKAGE UZF-1            ON UNIT   1025 AT TIME STEP     15, STRESS PERIOD      9
 UBDSV06 SAVING   UZF-GWD TO-MVR IN MODEL E13              PACKAGE E13             CONNECTED TO MODEL E13              PACKAGE UZF-1            ON UNIT   1025 AT TIME STEP     15, STRESS PERIOD      9
 UBDSV06 SAVING         UZF-GWET IN MODEL E13              PACKAGE E13             CONNECTED TO MODEL E13              PACKAGE UZF-1            ON UNIT   1025 AT TIME STEP     15, STRESS PERIOD      9
 UBDSV06 SAVING     FLOW-JA-FACE IN MODEL E13              PACKAGE SFR-1           CONNECTED TO MODEL E13              PACKAGE SFR-1            ON UNIT   1017 AT TIME STEP     15, STRESS PERIOD      9
 UBDSV06 SAVING              GWF IN MODEL E13              PACKAGE SFR-1           CONNECTED TO MODEL E13              PACKAGE E13              ON UNIT   1017 AT TIME STEP     15, STRESS PERIOD      9
 UBDSV06 SAVING         RAINFALL IN MODEL E13              PACKAGE SFR-1           CONNECTED TO MODEL E13              PACKAGE SFR-1            ON UNIT   1017 AT TIME STEP     15, STRESS PERIOD      9
 UBDSV06 SAVING      EVAPORATION IN MODEL E13              PACKAGE SFR-1           CONNECTED TO MODEL E13              PACKAGE SFR-1            ON UNIT   1017 AT TIME STEP     15, STRESS PERIOD      9
 UBDSV06 SAVING           RUNOFF IN MODEL E13              PACKAGE SFR-1           CONNECTED TO MODEL E13              PACKAGE SFR-1            ON UNIT   1017 AT TIME STEP     15, STRESS PERIOD      9
 UBDSV06 SAVING       EXT-INFLOW IN MODEL E13              PACKAGE SFR-1           CONNECTED TO MODEL E13              PACKAGE SFR-1            ON UNIT   1017 AT TIME STEP     15, STRESS PERIOD      9
 UBDSV06 SAVING      EXT-OUTFLOW IN MODEL E13              PACKAGE SFR-1           CONNECTED TO MODEL E13              PACKAGE SFR-1            ON UNIT   1017 AT TIME STEP     15, STRESS PERIOD      9
 UBDSV06 SAVING          STORAGE IN MODEL E13              PACKAGE SFR-1           CONNECTED TO MODEL E13              PACKAGE SFR-1            ON UNIT   1017 AT TIME STEP     15, STRESS PERIOD      9
 UBDSV06 SAVING         FROM-MVR IN MODEL E13              PACKAGE SFR-1           CONNECTED TO MODEL E13              PACKAGE SFR-1            ON UNIT   1017 AT TIME STEP     15, STRESS PERIOD      9
 UBDSV06 SAVING           TO-MVR IN MODEL E13              PACKAGE SFR-1           CONNECTED TO MODEL E13              PACKAGE SFR-1            ON UNIT   1017 AT TIME STEP     15, STRESS PERIOD      9
 UBDSV06 SAVING              GWF IN MODEL E13              PACKAGE LAK-1           CONNECTED TO MODEL E13              PACKAGE E13              ON UNIT   1019 AT TIME STEP     15, STRESS PERIOD      9
 UBDSV06 SAVING         RAINFALL IN MODEL E13              PACKAGE LAK-1           CONNECTED TO MODEL E13              PACKAGE LAK-1            ON UNIT   1019 AT TIME STEP     15, STRESS PERIOD      9
 UBDSV06 SAVING      EVAPORATION IN MODEL E13              PACKAGE LAK-1           CONNECTED TO MODEL E13              PACKAGE LAK-1            ON UNIT   1019 AT TIME STEP     15, STRESS PERIOD      9
 UBDSV06 SAVING           RUNOFF IN MODEL E13              PACKAGE LAK-1           CONNECTED TO MODEL E13              PACKAGE LAK-1            ON UNIT   1019 AT TIME STEP     15, STRESS PERIOD      9
 UBDSV06 SAVING       EXT-INFLOW IN MODEL E13              PACKAGE LAK-1           CONNECTED TO MODEL E13              PACKAGE LAK-1            ON UNIT   1019 AT TIME STEP     15, STRESS PERIOD      9
 UBDSV06 SAVING       WITHDRAWAL IN MODEL E13              PACKAGE LAK-1           CONNECTED TO MODEL E13              PACKAGE LAK-1            ON UNIT   1019 AT TIME STEP     15, STRESS PERIOD      9
 UBDSV06 SAVING      EXT-OUTFLOW IN MODEL E13              PACKAGE LAK-1           CONNECTED TO MODEL E13              PACKAGE LAK-1            ON UNIT   1019 AT TIME STEP     15, STRESS PERIOD      9
 UBDSV06 SAVING          STORAGE IN MODEL E13              PACKAGE LAK-1           CONNECTED TO MODEL E13              PACKAGE LAK-1            ON UNIT   1019 AT TIME STEP     15, STRESS PERIOD      9
 UBDSV06 SAVING         CONSTANT IN MODEL E13              PACKAGE LAK-1           CONNECTED TO MODEL E13              PACKAGE LAK-1            ON UNIT   1019 AT TIME STEP     15, STRESS PERIOD      9
 UBDSV06 SAVING         FROM-MVR IN MODEL E13              PACKAGE LAK-1           CONNECTED TO MODEL E13              PACKAGE LAK-1            ON UNIT   1019 AT TIME STEP     15, STRESS PERIOD      9
 UBDSV06 SAVING           TO-MVR IN MODEL E13              PACKAGE LAK-1           CONNECTED TO MODEL E13              PACKAGE LAK-1            ON UNIT   1019 AT TIME STEP     15, STRESS PERIOD      9
 UBDSV06 SAVING     FLOW-JA-FACE IN MODEL E13              PACKAGE UZF-1           CONNECTED TO MODEL E13              PACKAGE UZF-1            ON UNIT   1021 AT TIME STEP     15, STRESS PERIOD      9
 UBDSV06 SAVING              GWF IN MODEL E13              PACKAGE UZF-1           CONNECTED TO MODEL E13              PACKAGE E13              ON UNIT   1021 AT TIME STEP     15, STRESS PERIOD      9
 UBDSV06 SAVING     INFILTRATION IN MODEL E13              PACKAGE UZF-1           CONNECTED TO MODEL E13              PACKAGE UZF-1            ON UNIT   1021 AT TIME STEP     15, STRESS PERIOD      9
 UBDSV06 SAVING          REJ-INF IN MODEL E13              PACKAGE UZF-1           CONNECTED TO MODEL E13              PACKAGE UZF-1            ON UNIT   1021 AT TIME STEP     15, STRESS PERIOD      9
 UBDSV06 SAVING             UZET IN MODEL E13              PACKAGE UZF-1           CONNECTED TO MODEL E13              PACKAGE UZF-1            ON UNIT   1021 AT TIME STEP     15, STRESS PERIOD      9
 UBDSV06 SAVING          STORAGE IN MODEL E13              PACKAGE UZF-1           CONNECTED TO MODEL E13              PACKAGE UZF-1            ON UNIT   1021 AT TIME STEP     15, STRESS PERIOD      9
 UBDSV06 SAVING         FROM-MVR IN MODEL E13              PACKAGE UZF-1           CONNECTED TO MODEL E13              PACKAGE UZF-1            ON UNIT   1021 AT TIME STEP     15, STRESS PERIOD      9
 UBDSV06 SAVING   REJ-INF-TO-MVR IN MODEL E13              PACKAGE UZF-1           CONNECTED TO MODEL E13              PACKAGE UZF-1            ON UNIT   1021 AT TIME STEP     15, STRESS PERIOD      9
 UBDSV06 SAVING       MOVER-FLOW IN MODEL E13              PACKAGE UZF-1           CONNECTED TO MODEL E13              PACKAGE UZF-1            ON UNIT   1023 AT TIME STEP     15, STRESS PERIOD      9
 UBDSV06 SAVING       MOVER-FLOW IN MODEL E13              PACKAGE UZF-1           CONNECTED TO MODEL E13              PACKAGE SFR-1            ON UNIT   1023 AT TIME STEP     15, STRESS PERIOD      9
 UBDSV06 SAVING       MOVER-FLOW IN MODEL E13              PACKAGE UZF-1           CONNECTED TO MODEL E13              PACKAGE LAK-1            ON UNIT   1023 AT TIME STEP     15, STRESS PERIOD      9
 UBDSV06 SAVING       MOVER-FLOW IN MODEL E13              PACKAGE UZF-1           CONNECTED TO MODEL E13              PACKAGE WEL-1            ON UNIT   1023 AT TIME STEP     15, STRESS PERIOD      9
 UBDSV06 SAVING       MOVER-FLOW IN MODEL E13              PACKAGE SFR-1           CONNECTED TO MODEL E13              PACKAGE UZF-1            ON UNIT   1023 AT TIME STEP     15, STRESS PERIOD      9
 UBDSV06 SAVING       MOVER-FLOW IN MODEL E13              PACKAGE SFR-1           CONNECTED TO MODEL E13              PACKAGE SFR-1            ON UNIT   1023 AT TIME STEP     15, STRESS PERIOD      9
 UBDSV06 SAVING       MOVER-FLOW IN MODEL E13              PACKAGE SFR-1           CONNECTED TO MODEL E13              PACKAGE LAK-1            ON UNIT   1023 AT TIME STEP     15, STRESS PERIOD      9
 UBDSV06 SAVING       MOVER-FLOW IN MODEL E13              PACKAGE SFR-1           CONNECTED TO MODEL E13              PACKAGE WEL-1            ON UNIT   1023 AT TIME STEP     15, STRESS PERIOD      9
 UBDSV06 SAVING       MOVER-FLOW IN MODEL E13              PACKAGE LAK-1           CONNECTED TO MODEL E13              PACKAGE UZF-1            ON UNIT   1023 AT TIME STEP     15, STRESS PERIOD      9
 UBDSV06 SAVING       MOVER-FLOW IN MODEL E13              PACKAGE LAK-1           CONNECTED TO MODEL E13              PACKAGE SFR-1            ON UNIT   1023 AT TIME STEP     15, STRESS PERIOD      9
 UBDSV06 SAVING       MOVER-FLOW IN MODEL E13              PACKAGE LAK-1           CONNECTED TO MODEL E13              PACKAGE LAK-1            ON UNIT   1023 AT TIME STEP     15, STRESS PERIOD      9
 UBDSV06 SAVING       MOVER-FLOW IN MODEL E13              PACKAGE LAK-1           CONNECTED TO MODEL E13              PACKAGE WEL-1            ON UNIT   1023 AT TIME STEP     15, STRESS PERIOD      9
 UBDSV06 SAVING       MOVER-FLOW IN MODEL E13              PACKAGE WEL-1           CONNECTED TO MODEL E13              PACKAGE UZF-1            ON UNIT   1023 AT TIME STEP     15, STRESS PERIOD      9
 UBDSV06 SAVING       MOVER-FLOW IN MODEL E13              PACKAGE WEL-1           CONNECTED TO MODEL E13              PACKAGE SFR-1            ON UNIT   1023 AT TIME STEP     15, STRESS PERIOD      9
 UBDSV06 SAVING       MOVER-FLOW IN MODEL E13              PACKAGE WEL-1           CONNECTED TO MODEL E13              PACKAGE LAK-1            ON UNIT   1023 AT TIME STEP     15, STRESS PERIOD      9
 UBDSV06 SAVING       MOVER-FLOW IN MODEL E13              PACKAGE WEL-1           CONNECTED TO MODEL E13              PACKAGE WEL-1            ON UNIT   1023 AT TIME STEP     15, STRESS PERIOD      9

 WEL PACKAGE (WEL-1) FLOW RATES   PERIOD      9   STEP       15
 -----------------------------------------------
   NUMBER   CELLID                    RATE      
 -----------------------------------------------
     1      (1,6,4)               0.0000000     
     2      (1,6,5)               0.0000000     
     3      (1,7,4)               0.0000000     
     4      (1,7,5)               0.0000000     
     5      (1,8,4)               0.0000000     
     6      (1,8,5)               0.0000000     
     7      (1,9,4)               0.0000000     
     8      (1,9,5)               0.0000000     
     9      (1,10,4)              0.0000000     
     10     (1,10,5)              0.0000000     
 -----------------------------------------------




 WEL PACKAGE (WEL-1) FLOW RATES TO-MVR   PERIOD      9   STEP       15
 -----------------------------------------------
   NUMBER   CELLID                    RATE      
 -----------------------------------------------
     1      (1,6,4)              -0.85000000    
     2      (1,6,5)              -0.85000000    
     3      (1,7,4)              -0.85000000    
     4      (1,7,5)              -0.85000000    
     5      (1,8,4)              -0.85000000    
     6      (1,8,5)              -0.85000000    
     7      (1,9,4)              -0.85000000    
     8      (1,9,5)              -0.85000000    
     9      (1,10,4)             -0.85000000    
     10     (1,10,5)             -0.85000000    
 -----------------------------------------------




 SFR PACKAGE (SFR-1) FLOW RATES   PERIOD      9   STEP       15
 ----------------------------------------------------------------------------------------
   NUMBER   CELLID                    RATE       NAME                                    
 ----------------------------------------------------------------------------------------
     1      (1,1,1)               0.22868377     ALLREACHES                              
     2      (1,2,2)               0.35499870     ALLREACHES                              
     3      (1,3,3)               0.30357347     ALLREACHES                              
     4      (1,3,4)               0.28021936     ALLREACHES                              
     5      (1,4,5)               0.29960805     ALLREACHES                              
     6      (1,5,6)               0.22987955     ALLREACHES                              
     7      (1,6,6)               0.22936563     ALLREACHES                              
     8      (1,7,6)               0.22884928     ALLREACHES                              
     9      (1,8,6)               0.22833044     ALLREACHES                              
     10     (1,3,5)               2.12214188E-02 ALLREACHES                              
     11     (1,3,6)               1.99133007E-02 ALLREACHES                              
     12     (1,3,7)               1.67956407E-02 ALLREACHES                              
     13     (1,4,8)               2.07205450E-02 ALLREACHES                              
     14     (1,5,8)               1.57905563E-02 ALLREACHES                              
     15     (1,6,8)               5.93648362E-03 ALLREACHES                              
     16     (1,5,10)              9.09197693E-02 ALLREACHES                              
     17     (1,5,9)               0.18157734     ALLREACHES                              
     18     (1,6,8)               0.12689514     ALLREACHES                              
     19     (1,6,8)               0.17138468     ALLREACHES                              
     20     (1,7,7)               0.21384773     ALLREACHES                              
     21     (1,8,7)               0.14943953     ALLREACHES                              
     22     (1,8,6)               0.10661428     ALLREACHES                              
     23     (1,9,6)               0.24837387     ALLREACHES                              
     24     (1,12,7)              2.55092516E-02 ALLREACHES                              
     25     (1,13,7)              2.80561109E-02 ALLREACHES                              
     26     (1,14,9)              2.6922030      ALLREACHES                              
     27     (1,13,8)              2.6824902      ALLREACHES                              
     28     (1,13,7)              2.6727412      ALLREACHES                              
     29     (1,13,6)             -2.0604210      ALLREACHES                              
     30     (1,13,2)             -3.0410459      ALLREACHES                              
     31     (1,13,1)             -1.3210916      ALLREACHES                              
 ----------------------------------------------------------------------------------------




 LAK PACKAGE (LAK-1) FLOW RATES   PERIOD      9   STEP       15
 -----------------------------------------------
   NUMBER   CELLID                    RATE      
 -----------------------------------------------
     1      (1,9,7)               8.41701572E-03
     2      (1,10,6)              1.08642873E-02
     3      (2,10,7)              0.99989963    
     4      (1,9,8)               6.02006316E-03
     5      (1,10,9)              1.05243926E-04
     6      (2,10,8)              0.98618564    
     7      (1,11,6)              1.17776788E-02
     8      (1,12,7)              1.10941347E-02
     9      (2,11,7)              0.98964559    
     10     (1,11,9)              2.62821158E-03
     11     (1,12,8)              1.08712098E-02
     12     (2,11,8)              0.97178879    
     13     (1,10,3)             -1.28186337E-03
     14     (1,11,2)             -9.81068526E-04
     15     (2,11,3)             -0.65322780    
     16     (1,10,4)             -1.02465357E-03
     17     (2,11,4)             -0.67259634    
     18     (1,10,5)             -2.79070647E-03
     19     (1,11,6)             -4.02087793E-03
     20     (2,11,5)             -0.69743958    
     21     (1,12,2)             -3.70856027E-03
     22     (2,12,3)             -0.63572639    
     23     (2,12,4)             -0.67050793    
     24     (1,12,6)             -5.54786221E-03
     25     (2,12,5)             -0.70347746    
     26     (1,13,2)             -9.61827471E-04
     27     (2,13,3)             -0.63921990    
     28     (2,13,4)             -0.68373258    
     29     (1,13,6)             -6.41884992E-03
     30     (2,13,5)             -0.72058376    
     31     (1,14,2)             -4.43226300E-03
     32     (1,15,3)              0.0000000     
     33     (2,14,3)             -0.67225381    
     34     (1,15,4)              0.0000000     
     35     (2,14,4)             -0.71061791    
     36     (1,14,6)             -4.80774370E-03
     37     (1,15,5)              0.0000000     
     38     (2,14,5)             -0.74481256    
 -----------------------------------------------




 SFR-1 PACKAGE - SUMMARY OF FLOWS FOR EACH CONTROL VOLUME   PERIOD      9   STEP       15
 --------------------------------------------------------------------------------------------------------------------------------------------------------------------------------------------------------
                                                                                                                                                                                               PERCENT   
   NUMBER   CELLID                  INFLOW      OUTFLOW        GWF        RAINFALL   EVAPORATION     RUNOFF     EXT INFLOW  EXT OUTFLOW    STORAGE      FROM MVR      TO MVR      IN - OUT    DIFFERENCE 
 --------------------------------------------------------------------------------------------------------------------------------------------------------------------------------------------------------
     1      (1,1,1)               0.0000      -24.771      -0.22868      0.0000       0.0000       0.0000       25.000       0.0000       0.0000       0.0000       0.0000       0.0000       0.0000     
     2      (1,2,2)               24.771      -24.416      -0.35500      0.0000       0.0000       0.0000       0.0000       0.0000       0.0000       0.0000       0.0000       0.0000       0.0000     
     3      (1,3,3)               24.416      -24.113      -0.30357      0.0000       0.0000       0.0000       0.0000       0.0000       0.0000       0.0000       0.0000       0.0000       0.0000     
     4      (1,3,4)               24.113      -23.833      -0.28022      0.0000       0.0000       0.0000       0.0000       0.0000       0.0000       0.0000       0.0000       0.0000       0.0000     
     5      (1,4,5)               13.833      -13.533      -0.29961      0.0000       0.0000       0.0000       0.0000       0.0000       0.0000       0.0000       0.0000       0.0000       0.0000     
     6      (1,5,6)               13.533      -13.303      -0.22988      0.0000       0.0000       0.0000       0.0000       0.0000       0.0000       0.0000       0.0000       0.0000       0.0000     
     7      (1,6,6)               13.303      -13.074      -0.22937      0.0000       0.0000       0.0000       0.0000       0.0000       0.0000       0.0000       0.0000       0.0000       0.0000     
     8      (1,7,6)               13.074      -12.845      -0.22885      0.0000       0.0000       0.0000       0.0000       0.0000       0.0000       0.0000       0.0000       0.0000       0.0000     
     9      (1,8,6)               12.845      -12.616      -0.22833      0.0000       0.0000       0.0000       0.0000       0.0000       0.0000       0.0000       0.0000       0.0000       0.0000     
     10     (1,3,5)               10.000      -9.9788      -2.12214E-02  0.0000       0.0000       0.0000       0.0000       0.0000       0.0000       0.0000       0.0000       0.0000       0.0000     
     11     (1,3,6)               9.9788      -9.9589      -1.99133E-02  0.0000       0.0000       0.0000       0.0000       0.0000       0.0000       0.0000       0.0000       0.0000       0.0000     
     12     (1,3,7)               9.9589      -9.9421      -1.67956E-02  0.0000       0.0000       0.0000       0.0000       0.0000       0.0000       0.0000       0.0000       0.0000       0.0000     
     13     (1,4,8)               9.9421      -9.9213      -2.07205E-02  0.0000       0.0000       0.0000       0.0000       0.0000       0.0000       0.0000       0.0000       0.0000       0.0000     
     14     (1,5,8)               9.9213      -9.9056      -1.57906E-02  0.0000       0.0000       0.0000       0.0000       0.0000       0.0000       0.0000       0.0000       0.0000       0.0000     
     15     (1,6,8)               9.9056      -9.8996      -5.93648E-03  0.0000       0.0000       0.0000       0.0000       0.0000       0.0000       0.0000       0.0000       0.0000       0.0000     
     16     (1,5,10)              0.0000      -9.9091      -9.09198E-02  0.0000       0.0000       0.0000       10.000       0.0000       0.0000       0.0000       0.0000       0.0000       0.0000     
     17     (1,5,9)               9.9091      -9.7275      -0.18158      0.0000       0.0000       0.0000       0.0000       0.0000       0.0000       0.0000       0.0000       0.0000       0.0000     
     18     (1,6,8)               9.7275      -9.6006      -0.12690      0.0000       0.0000       0.0000       0.0000       0.0000       0.0000       0.0000       0.0000       0.0000       0.0000     
     19     (1,6,8)               19.500      -19.329      -0.17138      0.0000       0.0000       0.0000       0.0000       0.0000       0.0000       0.0000       0.0000       0.0000       0.0000     
     20     (1,7,7)               19.329      -19.115      -0.21385      0.0000       0.0000       0.0000       0.0000       0.0000       0.0000       0.0000       0.0000       0.0000       0.0000     
     21     (1,8,7)               19.115      -18.966      -0.14944      0.0000       0.0000       0.0000       0.0000       0.0000       0.0000       0.0000       0.0000       0.0000       0.0000     
     22     (1,8,6)               18.966      -18.859      -0.10661      0.0000       0.0000       0.0000       0.0000       0.0000       0.0000       0.0000       0.0000       0.0000       0.0000     
     23     (1,9,6)               31.475       0.0000      -0.24837      0.0000       0.0000       0.0000       0.0000       0.0000       0.0000       0.0000      -31.227       0.0000       0.0000     
     24     (1,12,7)              0.0000      -32.640      -2.55093E-02  0.0000       0.0000       0.0000       0.0000       0.0000       0.0000       32.665       0.0000       0.0000       0.0000     
     25     (1,13,7)              32.640      -32.612      -2.80561E-02  0.0000       0.0000       0.0000       0.0000       0.0000       0.0000       0.0000       0.0000       0.0000       0.0000     
     26     (1,14,9)              0.0000      -147.31      -2.6922       0.0000       0.0000       0.0000       150.00       0.0000       0.0000       0.0000       0.0000       0.0000       0.0000     
     27     (1,13,8)              147.31      -144.63      -2.6825       0.0000       0.0000       0.0000       0.0000       0.0000       0.0000       0.0000       0.0000       0.0000       0.0000     
     28     (1,13,7)              144.63      -141.95      -2.6727       0.0000       0.0000       0.0000       0.0000       0.0000       0.0000       0.0000       0.0000       0.0000       0.0000     
     29     (1,13,6)              174.56       0.0000       2.0604       0.0000       0.0000       0.0000       0.0000      -1.80563E-09  0.0000       0.0000      -176.62       0.0000       0.0000     
     30     (1,13,2)              0.0000      -190.72       3.0410       0.0000       0.0000       0.0000       0.0000       0.0000       0.0000       187.68       0.0000       0.0000       0.0000     
     31     (1,13,1)              190.72       0.0000       1.3211       0.0000       0.0000       0.0000       0.0000      -198.17       0.0000       6.1272       0.0000       0.0000       0.0000     
 --------------------------------------------------------------------------------------------------------------------------------------------------------------------------------------------------------



 LAK-1 PACKAGE - SUMMARY OF FLOWS FOR EACH CONTROL VOLUME   PERIOD      9   STEP       15
 -----------------------------------------------------------------------------------------------------------------------------------------------------------------------------------
                                                                                                                                                                          PERCENT   
   NUMBER       GWF        RAINFALL   EVAPORATION     RUNOFF     EXT INFLOW   WITHDRAWAL  EXT OUTFLOW    STORAGE      CONSTANT     FROM MVR      TO MVR      IN - OUT    DIFFERENCE 
 -----------------------------------------------------------------------------------------------------------------------------------------------------------------------------------
     1      -4.0093       5.0000      -1.0000       1.5000       0.0000       0.0000       0.0000      -5.23908E-02  0.0000       31.227      -32.665       7.79237E-09  2.06546E-08
     2       8.2402       3.6000      -3.3000       3.0000       0.0000      -0.12000     -5.91295E-08 -0.36528      0.0000       176.62      -187.68       8.56765E-08  4.47479E-08
 -----------------------------------------------------------------------------------------------------------------------------------------------------------------------------------



 WATER MOVER PACKAGE (MVR) FLOW RATES   PERIOD      9   STEP       15
 --------------------------------------------------------------------------------------------------------------------------
                                               PROVIDER  AVAILABLE   PROVIDED                                     RECEIVER 
   NUMBER           PROVIDER LOCATION             ID        RATE       RATE            RECEIVER LOCATION             ID    
 --------------------------------------------------------------------------------------------------------------------------
     1                  E13/SFR-1                 23      31.2       31.2                  E13/LAK-1                 1     
     2                  E13/LAK-1                 1       32.7       32.7                  E13/SFR-1                 24    
     3                  E13/SFR-1                 29      177.       177.                  E13/LAK-1                 2     
     4                  E13/LAK-1                 2       188.       188.                  E13/SFR-1                 30    
     5                  E13/UZF-1                 1       0.00       0.00                  E13/SFR-1                 1     
     6                  E13/UZF-1                 2       0.00       0.00                  E13/SFR-1                 2     
     7                  E13/UZF-1                 3       0.00       0.00                  E13/SFR-1                 2     
     8                  E13/UZF-1                 4       0.00       0.00                  E13/SFR-1                 2     
     9                  E13/UZF-1                 5       0.00       0.00                  E13/SFR-1                 3     
     10                 E13/UZF-1                 6       0.00       0.00                  E13/SFR-1                 11    
     11                 E13/UZF-1                 7       0.00       0.00                  E13/SFR-1                 12    
     12                 E13/UZF-1                 8       0.00       0.00                  E13/SFR-1                 12    
     13                 E13/UZF-1                 9       0.00       0.00                  E13/SFR-1                 2     
     14                 E13/UZF-1                 10      0.00       0.00                  E13/SFR-1                 3     
     15                 E13/UZF-1                 11      0.00       0.00                  E13/SFR-1                 4     
     16                 E13/UZF-1                 12      0.00       0.00                  E13/SFR-1                 10    
     17                 E13/UZF-1                 13      0.00       0.00                  E13/SFR-1                 11    
     18                 E13/UZF-1                 14      0.00       0.00                  E13/SFR-1                 12    
     19                 E13/UZF-1                 15      0.00       0.00                  E13/SFR-1                 13    
     20                 E13/UZF-1                 16      0.00       0.00                  E13/LAK-1                 2     
     21                 E13/UZF-1                 17      0.00       0.00                  E13/LAK-1                 2     
     22                 E13/UZF-1                 18      0.00       0.00                  E13/SFR-1                 3     
     23                 E13/UZF-1                 19      0.00       0.00                  E13/SFR-1                 4     
     24                 E13/UZF-1                 20      0.00       0.00                  E13/SFR-1                 5     
     25                 E13/UZF-1                 21      0.00       0.00                  E13/SFR-1                 6     
     26                 E13/UZF-1                 22      0.00       0.00                  E13/SFR-1                 6     
     27                 E13/UZF-1                 23      0.00       0.00                  E13/SFR-1                 13    
     28                 E13/UZF-1                 24      0.00       0.00                  E13/SFR-1                 17    
     29                 E13/UZF-1                 25      0.00       0.00                  E13/LAK-1                 2     
     30                 E13/UZF-1                 26      0.00       0.00                  E13/LAK-1                 2     
     31                 E13/UZF-1                 27      0.00       0.00                  E13/LAK-1                 2     
     32                 E13/UZF-1                 28      0.00       0.00                  E13/LAK-1                 2     
     33                 E13/UZF-1                 29      0.00       0.00                  E13/SFR-1                 5     
     34                 E13/UZF-1                 30      0.00       0.00                  E13/SFR-1                 6     
     35                 E13/UZF-1                 31      0.00       0.00                  E13/SFR-1                 6     
     36                 E13/UZF-1                 32      0.00       0.00                  E13/SFR-1                 14    
     37                 E13/UZF-1                 33      0.00       0.00                  E13/SFR-1                 17    
     38                 E13/UZF-1                 34      0.00       0.00                  E13/SFR-1                 16    
     39                 E13/UZF-1                 35      0.00       0.00                  E13/LAK-1                 2     
     40                 E13/UZF-1                 36      0.00       0.00                  E13/LAK-1                 2     
     41                 E13/UZF-1                 37      0.00       0.00                  E13/LAK-1                 2     
     42                 E13/UZF-1                 38      0.00       0.00                  E13/LAK-1                 2     
     43                 E13/UZF-1                 39      0.00       0.00                  E13/LAK-1                 2     
     44                 E13/UZF-1                 40      0.00       0.00                  E13/SFR-1                 7     
     45                 E13/UZF-1                 41      0.00       0.00                  E13/SFR-1                 7     
     46                 E13/UZF-1                 42      0.00       0.00                  E13/SFR-1                 19    
     47                 E13/UZF-1                 43      0.00       0.00                  E13/SFR-1                 17    
     48                 E13/UZF-1                 44      0.00       0.00                  E13/SFR-1                 16    
     49                 E13/UZF-1                 45      0.00       0.00                  E13/LAK-1                 2     
     50                 E13/UZF-1                 46      0.00       0.00                  E13/LAK-1                 2     
     51                 E13/UZF-1                 47      0.00       0.00                  E13/LAK-1                 2     
     52                 E13/UZF-1                 48      0.00       0.00                  E13/LAK-1                 2     
     53                 E13/UZF-1                 49      0.00       0.00                  E13/LAK-1                 2     
     54                 E13/UZF-1                 50      0.00       0.00                  E13/SFR-1                 8     
     55                 E13/UZF-1                 51      0.00       0.00                  E13/SFR-1                 20    
     56                 E13/UZF-1                 52      0.00       0.00                  E13/SFR-1                 20    
     57                 E13/UZF-1                 53      0.00       0.00                  E13/SFR-1                 20    
     58                 E13/UZF-1                 54      0.00       0.00                  E13/LAK-1                 2     
     59                 E13/UZF-1                 55      0.00       0.00                  E13/LAK-1                 2     
     60                 E13/UZF-1                 56      0.00       0.00                  E13/LAK-1                 2     
     61                 E13/UZF-1                 57      0.00       0.00                  E13/LAK-1                 2     
     62                 E13/UZF-1                 58      0.00       0.00                  E13/SFR-1                 9     
     63                 E13/UZF-1                 59      0.00       0.00                  E13/SFR-1                 21    
     64                 E13/UZF-1                 60      0.00       0.00                  E13/SFR-1                 21    
     65                 E13/UZF-1                 61      0.00       0.00                  E13/SFR-1                 21    
     66                 E13/UZF-1                 62      0.00       0.00                  E13/LAK-1                 2     
     67                 E13/UZF-1                 63      0.00       0.00                  E13/LAK-1                 2     
     68                 E13/UZF-1                 64      0.00       0.00                  E13/LAK-1                 2     
     69                 E13/UZF-1                 65      0.00       0.00                  E13/LAK-1                 2     
     70                 E13/UZF-1                 66      0.00       0.00                  E13/SFR-1                 23    
     71                 E13/UZF-1                 67      0.00       0.00                  E13/LAK-1                 1     
     72                 E13/UZF-1                 68      0.00       0.00                  E13/LAK-1                 1     
     73                 E13/UZF-1                 69      0.00       0.00                  E13/LAK-1                 1     
     74                 E13/UZF-1                 70      0.00       0.00                  E13/LAK-1                 2     
     75                 E13/UZF-1                 71      0.00       0.00                  E13/LAK-1                 2     
     76                 E13/UZF-1                 72      0.00       0.00                  E13/LAK-1                 2     
     77                 E13/UZF-1                 73      0.00       0.00                  E13/LAK-1                 2     
     78                 E13/UZF-1                 74      0.00       0.00                  E13/LAK-1                 1     
     79                 E13/UZF-1                 75      0.00       0.00                  E13/LAK-1                 1     
     80                 E13/UZF-1                 76      0.00       0.00                  E13/LAK-1                 1     
     81                 E13/UZF-1                 77      0.00       0.00                  E13/LAK-1                 2     
     82                 E13/UZF-1                 78      0.00       0.00                  E13/SFR-1                 9     
     83                 E13/UZF-1                 79      0.00       0.00                  E13/LAK-1                 1     
     84                 E13/UZF-1                 80      0.00       0.00                  E13/SFR-1                 31    
     85                 E13/UZF-1                 81      0.00       0.00                  E13/SFR-1                 30    
     86                 E13/UZF-1                 82      0.00       0.00                  E13/SFR-1                 9     
     87                 E13/UZF-1                 83      0.00       0.00                  E13/SFR-1                 24    
     88                 E13/UZF-1                 84      0.00       0.00                  E13/LAK-1                 1     
     89                 E13/UZF-1                 85      0.00       0.00                  E13/LAK-1                 1     
     90                 E13/UZF-1                 86      6.13       6.13                  E13/SFR-1                 31    
     91                 E13/UZF-1                 87      0.00       0.00                  E13/SFR-1                 30    
     92                 E13/UZF-1                 88      0.00       0.00                  E13/SFR-1                 29    
     93                 E13/UZF-1                 89      0.00       0.00                  E13/SFR-1                 28    
     94                 E13/UZF-1                 90      0.00       0.00                  E13/SFR-1                 27    
     95                 E13/UZF-1                 91      0.00       0.00                  E13/SFR-1                 26    
     96                 E13/UZF-1                 92      0.00       0.00                  E13/SFR-1                 30    
     97                 E13/UZF-1                 93      0.00       0.00                  E13/LAK-1                 2     
     98                 E13/UZF-1                 94      0.00       0.00                  E13/SFR-1                 28    
     99                 E13/UZF-1                 95      0.00       0.00                  E13/SFR-1                 27    
    100                 E13/UZF-1                 96      0.00       0.00                  E13/SFR-1                 26    
    101                 E13/UZF-1                 97      0.00       0.00                  E13/LAK-1                 2     
    102                 E13/UZF-1                 98      0.00       0.00                  E13/LAK-1                 2     
    103                 E13/UZF-1                 99      0.00       0.00                  E13/LAK-1                 2     
    104                 E13/UZF-1                100      0.00       0.00                  E13/LAK-1                 2     
    105                 E13/WEL-1                 1       0.850      0.850                 E13/UZF-1                 38    
    106                 E13/WEL-1                 2       0.850      0.850                 E13/UZF-1                 39    
    107                 E13/WEL-1                 3       0.850      0.850                 E13/UZF-1                 48    
    108                 E13/WEL-1                 4       0.850      0.850                 E13/UZF-1                 49    
    109                 E13/WEL-1                 5       0.850      0.850                 E13/UZF-1                 56    
    110                 E13/WEL-1                 6       0.850      0.850                 E13/UZF-1                 57    
    111                 E13/WEL-1                 7       0.850      0.850                 E13/UZF-1                 64    
    112                 E13/WEL-1                 8       0.850      0.850                 E13/UZF-1                 65    
    113                 E13/WEL-1                 9       0.850      0.850                 E13/UZF-1                 72    
    114                 E13/WEL-1                 10      0.850      0.850                 E13/UZF-1                 73    
 --------------------------------------------------------------------------------------------------------------------------



 SFR PACKAGE (SFR-1) STAGES FOR EACH CONTROL VOLUME   PERIOD      9   STEP       15
 ------------------------------------------------------------------------------------------------------------------------------------------------------
                                                                                                                               STREAMBED    STREAMBED  
 NAME                                       NUMBER   CELLID                  STAGE        DEPTH        WIDTH       GWF HEAD   CONDUCTANCE    GRADIENT  
 ------------------------------------------------------------------------------------------------------------------------------------------------------
 ALLREACHES                                   1      (1,1,1)               1094.3       1.2349       12.000       1019.3       5.40000E-02  1.4116     
 ALLREACHES                                   2      (1,2,2)               1089.3       1.2262       12.000       1019.6       8.40000E-02  1.4087     
 ALLREACHES                                   3      (1,3,3)               1083.6       1.2163       12.000       1019.4       7.20000E-02  1.4054     
 ALLREACHES                                   4      (1,3,4)               1078.6       1.2075       12.000       1019.6       6.66000E-02  1.4025     
 ALLREACHES                                   5      (1,4,5)               1072.8       0.84113      12.000       1019.6       7.80000E-02  1.2804     
 ALLREACHES                                   6      (1,5,6)               1067.3       0.83133      12.000       1019.0       6.00000E-02  1.2771     
 ALLREACHES                                   7      (1,6,6)               1062.6       0.82276      12.000       1018.7       6.00000E-02  1.2743     
 ALLREACHES                                   8      (1,7,6)               1057.9       0.81415      12.000       1018.4       6.00000E-02  1.2714     
 ALLREACHES                                   9      (1,8,6)               1053.2       0.80551      12.000       1018.4       6.00000E-02  1.2685     
 ALLREACHES                                   10     (1,3,5)               1074.6       0.93630      9.6364       1019.4       7.22727E-03  1.4681     
 ALLREACHES                                   11     (1,3,6)               1071.9       0.98022      8.9091       1019.4       6.68182E-03  1.4901     
 ALLREACHES                                   12     (1,3,7)               1069.3       1.0277       8.2182       1019.1       5.54727E-03  1.5139     
 ALLREACHES                                   13     (1,4,8)               1066.5       1.0884       7.4545       1018.5       6.70909E-03  1.5442     
 ALLREACHES                                   14     (1,5,8)               1063.6       1.1639       6.6545       1018.4       4.99091E-03  1.5819     
 ALLREACHES                                   15     (1,6,8)               1061.8       1.2200       6.1455       1019.0       1.84364E-03  1.6100     
 ALLREACHES                                   16     (1,5,10)              1078.4       0.63679      10.000       1018.6       2.50000E-02  1.2123     
 ALLREACHES                                   17     (1,5,9)               1071.5       0.63155      10.000       1018.9       5.00000E-02  1.2105     
 ALLREACHES                                   18     (1,6,8)               1063.8       0.62558      10.000       1019.0       3.50000E-02  1.2085     
 ALLREACHES                                   19     (1,6,8)               1060.0       1.2846       10.000       1019.0       4.00000E-02  1.4282     
 ALLREACHES                                   20     (1,7,7)               1056.9       1.2770       10.000       1018.7       5.00000E-02  1.4257     
 ALLREACHES                                   21     (1,8,7)               1054.1       1.2697       10.000       1018.4       3.50000E-02  1.4232     
 ALLREACHES                                   22     (1,8,6)               1052.1       1.2646       10.000       1018.4       2.50000E-02  1.4215     
 ALLREACHES                                   23     (1,9,6)               1046.6       1.1396       12.000       1017.9       6.00000E-02  1.3799     
 ALLREACHES                                   24     (1,12,7)              1037.7       1.2515       12.000       1019.0       6.00000E-03  1.4172     
 ALLREACHES                                   25     (1,13,7)              1030.2       1.2509       12.000       1022.8       6.60000E-03  1.4170     
 ALLREACHES                                   26     (1,14,9)              1034.8       1.4870       60.000       1026.5       0.60000      1.4957     
 ALLREACHES                                   27     (1,13,8)              1031.5       1.4708       60.000       1023.7       0.60000      1.4903     
 ALLREACHES                                   28     (1,13,7)              1028.1       1.4546       60.000       1022.8       0.60000      1.4849     
 ALLREACHES                                   29     (1,13,6)              1013.9       0.90891      60.000       1017.3       0.60000     -1.1447     
 ALLREACHES                                   30     (1,13,2)              998.30       1.4232       60.000       1003.4       0.60000     -1.6895     
 ALLREACHES                                   31     (1,13,1)              993.34       1.4604       60.000       997.01       0.36000     -1.2232     
 ------------------------------------------------------------------------------------------------------------------------------------------------------



 LAK PACKAGE (LAK-1) STAGES FOR EACH CONTROL VOLUME   PERIOD      9   STEP       15
 --------------------------------------------------------------
   NUMBER      STAGE     SURFACE AREA WETTED AREA     VOLUME   
 --------------------------------------------------------------
     1       1041.3       1.00000E+08  1.01383E+08  4.27522E+09
     2       1001.4       3.00000E+08  3.01460E+08  5.29990E+09
 --------------------------------------------------------------



 HEAD WILL BE SAVED ON UNIT 1026 AT END OF TIME STEP   15, STRESS PERIOD    9


  SFR-1 BUDGET FOR ENTIRE MODEL AT END OF TIME STEP   15, STRESS PERIOD   9
  ------------------------------------------------------------------------------

     CUMULATIVE SFR-1      L**3       RATES FOR THIS TIME STEP      L**3/T
     ------------------                 ------------------------

           IN:                                      IN:
           ---                                      ---
                 GWF =   135634945.8407                   GWF =           6.4226
            RAINFALL =           0.0000              RAINFALL =           0.0000
         EVAPORATION =           0.0000           EVAPORATION =           0.0000
              RUNOFF =           0.0000                RUNOFF =           0.0000
          EXT-INFLOW =  4375620000.0000            EXT-INFLOW =         185.0000
         EXT-OUTFLOW =       6.4949E-04           EXT-OUTFLOW =           0.0000
             STORAGE =           0.0000               STORAGE =           0.0000
            FROM-MVR =  5322076736.7351              FROM-MVR =         226.4722
              TO-MVR =           0.0000                TO-MVR =           0.0000

            TOTAL IN =  9833331682.5764              TOTAL IN =         417.8948

          OUT:                                     OUT:
          ----                                     ----
                 GWF =   280842062.5310                   GWF =          11.8739
            RAINFALL =           0.0000              RAINFALL =           0.0000
         EVAPORATION =           0.0000           EVAPORATION =           0.0000
              RUNOFF =           0.0000                RUNOFF =           0.0000
          EXT-INFLOW =           0.0000            EXT-INFLOW =           0.0000
         EXT-OUTFLOW =  4651592758.5765           EXT-OUTFLOW =         198.1690
             STORAGE =           0.0000               STORAGE =           0.0000
            FROM-MVR =           0.0000              FROM-MVR =           0.0000
              TO-MVR =  4900896861.4689                TO-MVR =         207.8519

           TOTAL OUT =  9833331682.5764             TOTAL OUT =         417.8948

            IN - OUT =           0.0000              IN - OUT =           0.0000

 PERCENT DISCREPANCY =           0.00     PERCENT DISCREPANCY =           0.00



  LAK-1 BUDGET FOR ENTIRE MODEL AT END OF TIME STEP   15, STRESS PERIOD   9
  ------------------------------------------------------------------------------

     CUMULATIVE LAK-1      L**3       RATES FOR THIS TIME STEP      L**3/T
     ------------------                 ------------------------

           IN:                                      IN:
           ---                                      ---
                 GWF =   174201019.5737                   GWF =           8.2402
            RAINFALL =   203407200.0000              RAINFALL =           8.6000
         EVAPORATION =           0.0000           EVAPORATION =           0.0000
              RUNOFF =   106434000.0000                RUNOFF =           4.5000
          EXT-INFLOW =           0.0000            EXT-INFLOW =           0.0000
          WITHDRAWAL =           0.0000            WITHDRAWAL =           0.0000
         EXT-OUTFLOW =           0.0000           EXT-OUTFLOW =           0.0000
             STORAGE =      279894.1678               STORAGE =           0.0000
            CONSTANT =           0.0000              CONSTANT =           0.0000
            FROM-MVR =  4900896861.4689              FROM-MVR =         207.8519
              TO-MVR =           0.0000                TO-MVR =           0.0000

            TOTAL IN =  5385218975.2103              TOTAL IN =         229.1920

          OUT:                                     OUT:
          ----                                     ----
                 GWF =    97114182.8603                   GWF =           4.0093
            RAINFALL =           0.0000              RAINFALL =           0.0000
         EVAPORATION =   101703600.0000           EVAPORATION =           4.3000
              RUNOFF =           0.0000                RUNOFF =           0.0000
          EXT-INFLOW =           0.0000            EXT-INFLOW =           0.0000
          WITHDRAWAL =     2838240.0000            WITHDRAWAL =           0.1200
         EXT-OUTFLOW =           1.4381           EXT-OUTFLOW =       5.9130E-08
             STORAGE =     2115396.6546               STORAGE =           0.4177
            CONSTANT =           0.0000              CONSTANT =           0.0000
            FROM-MVR =           0.0000              FROM-MVR =           0.0000
              TO-MVR =  5181447545.3745                TO-MVR =         220.3451

           TOTAL OUT =  5385218966.3275             TOTAL OUT =         229.1920

            IN - OUT =           8.8829              IN - OUT =       9.3469E-08

 PERCENT DISCREPANCY =           0.00     PERCENT DISCREPANCY =           0.00



  UZF-1 BUDGET FOR ENTIRE MODEL AT END OF TIME STEP   15, STRESS PERIOD   9
  ------------------------------------------------------------------------------

     CUMULATIVE UZF-1      L**3       RATES FOR THIS TIME STEP      L**3/T
     ------------------                 ------------------------

           IN:                                      IN:
           ---                                      ---
                 GWF =           0.0000                   GWF =           0.0000
        INFILTRATION =  2941934835.6000          INFILTRATION =          22.9500
             REJ-INF =           0.0000               REJ-INF =           0.0000
                UZET =           0.0000                  UZET =           0.0000
             STORAGE =   756253756.6327               STORAGE =          84.8665
            FROM-MVR =   134028000.0000              FROM-MVR =           8.5000
      REJ-INF-TO-MVR =           0.0000        REJ-INF-TO-MVR =           0.0000

            TOTAL IN =  3832216592.2327              TOTAL IN =         116.3165

          OUT:                                     OUT:
          ----                                     ----
                 GWF =   308473662.9036                   GWF =          39.8573
        INFILTRATION =           0.0000          INFILTRATION =           0.0000
             REJ-INF =          11.3951               REJ-INF =       5.5132E-10
                UZET =   483544094.1455                  UZET =          20.5756
             STORAGE =  3030584665.8520               STORAGE =          55.8086
            FROM-MVR =           0.0000              FROM-MVR =           0.0000
      REJ-INF-TO-MVR =     9614133.6927        REJ-INF-TO-MVR =       7.5000E-02

           TOTAL OUT =  3832216567.9889             TOTAL OUT =         116.3165

            IN - OUT =          24.2438              IN - OUT =       5.0479E-06

 PERCENT DISCREPANCY =           0.00     PERCENT DISCREPANCY =           0.00



  WATER MOVER BUDGET FOR ENTIRE MODEL AT END OF TIME STEP   15, STRESS PERIOD   9
  ------------------------------------------------------------------------------

     CUMULATIVE WATER MOVER      L**3       RATES FOR THIS TIME STEP      L**3/T
     ------------------                 ------------------------

           IN:                                      IN:
           ---                                      ---
               UZF-1 =   140629191.3606                 UZF-1 =           6.1272
               SFR-1 =  4900896861.4689                 SFR-1 =         207.8519
               LAK-1 =  5181447545.3745                 LAK-1 =         220.3451
               WEL-1 =   134028000.0000                 WEL-1 =           8.5000

            TOTAL IN = 10357001598.2040              TOTAL IN =         442.8241

          OUT:                                     OUT:
          ----                                     ----
               UZF-1 =   134028000.0000                 UZF-1 =           8.5000
               SFR-1 =  5322076736.7351                 SFR-1 =         226.4722
               LAK-1 =  4900896861.4689                 LAK-1 =         207.8519
               WEL-1 =           0.0000                 WEL-1 =           0.0000

           TOTAL OUT = 10357001598.2040             TOTAL OUT =         442.8241

            IN - OUT =           0.0000              IN - OUT =           0.0000

 PERCENT DISCREPANCY =           0.00     PERCENT DISCREPANCY =           0.00



  VOLUME BUDGET FOR ENTIRE MODEL AT END OF TIME STEP   15, STRESS PERIOD   9
  ---------------------------------------------------------------------------------------------------

     CUMULATIVE VOLUME      L**3       RATES FOR THIS TIME STEP      L**3/T          PACKAGE NAME    
     ------------------                 ------------------------                     ----------------

           IN:                                      IN:
           ---                                      ---
              STO-SS =      590366.1423                STO-SS =       4.4230E-03     STORAGE                          
              STO-SY =   173186531.8097                STO-SY =           4.0475     STORAGE                          
                 WEL =           0.0000                   WEL =           0.0000     WEL-1                            
          WEL-TO-MVR =           0.0000            WEL-TO-MVR =           0.0000     WEL-1                            
                 GHB =    16817665.6004                   GHB =           0.7036     GHB_0                            
                 SFR =   280842062.5310                   SFR =          11.8739     SFR-1                            
                 LAK =    97114182.8603                   LAK =           4.0093     LAK-1                            
           UZF-GWRCH =   308473662.9036             UZF-GWRCH =          39.8573     UZF-1                            
             UZF-GWD =           0.0000               UZF-GWD =           0.0000     UZF-1                            
      UZF-GWD TO-MVR =           0.0000        UZF-GWD TO-MVR =           0.0000     UZF-1                            
            UZF-GWET =           0.0000              UZF-GWET =           0.0000     UZF-1                            

            TOTAL IN =   877024471.8473              TOTAL IN =          60.4961

          OUT:                                     OUT:
          ----                                     ----
              STO-SS =     1749281.4948                STO-SS =           0.2343     STORAGE                          
              STO-SY =   279329623.3957                STO-SY =          30.1299     STORAGE                          
                 WEL =           0.0000                   WEL =           0.0000     WEL-1                            
          WEL-TO-MVR =   134028000.0000            WEL-TO-MVR =           8.5000     WEL-1                            
                 GHB =     8091900.8498                   GHB =           0.3422     GHB_0                            
                 SFR =   135635169.5600                   SFR =           6.4226     SFR-1                            
                 LAK =   174201019.5737                   LAK =           8.2402     LAK-1                            
           UZF-GWRCH =           0.0000             UZF-GWRCH =           0.0000     UZF-1                            
             UZF-GWD =          84.3939               UZF-GWD =       4.4489E-08     UZF-1                            
      UZF-GWD TO-MVR =   131015057.6679        UZF-GWD TO-MVR =           6.0522     UZF-1                            
            UZF-GWET =    12963891.4037              UZF-GWET =           0.5745     UZF-1                            

           TOTAL OUT =   877014028.3394             TOTAL OUT =          60.4957

            IN - OUT =       10443.5079              IN - OUT =       3.4553E-04

 PERCENT DISCREPANCY =           0.00     PERCENT DISCREPANCY =           0.00




         TIME SUMMARY AT END OF TIME STEP   15 IN STRESS PERIOD    9
                    SECONDS     MINUTES      HOURS       DAYS        YEARS
                    -----------------------------------------------------------
   TIME STEP LENGTH 1.75200E+05  2920.0      48.667      2.0278     5.55175E-03
 STRESS PERIOD TIME 2.62800E+06  43800.      730.00      30.417     8.32763E-02
         TOTAL TIME 2.36520E+07 3.94200E+05  6570.0      273.75     0.74949    


end timestep


start timestep kper="10" kstp="1" mode="normal"


 OUTPUT CONTROL FOR STRESS PERIOD 10 IS REPEATED USING SETTINGS FROM A PREVIOUS STRESS PERIOD.


 STRESS PERIOD 10 IS TRANSIENT


 REUSING MVRS FROM LAST STRESS PERIOD
 ----------------------------------
  WEL NO.    LAYER    ROW     COL  
 ----------------------------------
     1         1       4       8   
     2         1       4       9   
     3         1       5       8   
     4         1       5       9   
     5         1       6       6   
     6         1       6       7   
     7         1       7       4   
     8         1       7       5   
     9         1       8       2   
     10        1       8       3   
 ----------------------------------



 REUSING SFRS FROM LAST STRESS PERIOD

 REUSING LAKS FROM LAST STRESS PERIOD

end timestep


start timestep kper="10" kstp="2" mode="normal"


end timestep


start timestep kper="10" kstp="3" mode="normal"


end timestep


start timestep kper="10" kstp="4" mode="normal"


end timestep


start timestep kper="10" kstp="5" mode="normal"


end timestep


start timestep kper="10" kstp="6" mode="normal"


end timestep


start timestep kper="10" kstp="7" mode="normal"


end timestep


start timestep kper="10" kstp="8" mode="normal"


end timestep


start timestep kper="10" kstp="9" mode="normal"


end timestep


start timestep kper="10" kstp="10" mode="normal"


end timestep


start timestep kper="10" kstp="11" mode="normal"


end timestep


start timestep kper="10" kstp="12" mode="normal"


end timestep


start timestep kper="10" kstp="13" mode="normal"


end timestep


start timestep kper="10" kstp="14" mode="normal"


end timestep


start timestep kper="10" kstp="15" mode="normal"

 UBDSV1 SAVING           STO-SS ON UNIT   1025 AT TIME STEP     15, STRESS PERIOD     10
 UBDSV1 SAVING           STO-SY ON UNIT   1025 AT TIME STEP     15, STRESS PERIOD     10
 UBDSV1 SAVING     FLOW-JA-FACE ON UNIT   1025 AT TIME STEP     15, STRESS PERIOD     10
 UBDSV06 SAVING       DATA-SPDIS IN MODEL E13              PACKAGE NPF             CONNECTED TO MODEL E13              PACKAGE NPF              ON UNIT   1025 AT TIME STEP     15, STRESS PERIOD     10
 UBDSV06 SAVING              WEL IN MODEL E13              PACKAGE E13             CONNECTED TO MODEL E13              PACKAGE WEL-1            ON UNIT   1025 AT TIME STEP     15, STRESS PERIOD     10
 UBDSV06 SAVING       WEL-TO-MVR IN MODEL E13              PACKAGE E13             CONNECTED TO MODEL E13              PACKAGE WEL-1            ON UNIT   1025 AT TIME STEP     15, STRESS PERIOD     10
 UBDSV06 SAVING              GHB IN MODEL E13              PACKAGE E13             CONNECTED TO MODEL E13              PACKAGE GHB_0            ON UNIT   1025 AT TIME STEP     15, STRESS PERIOD     10
 UBDSV06 SAVING              SFR IN MODEL E13              PACKAGE E13             CONNECTED TO MODEL E13              PACKAGE SFR-1            ON UNIT   1025 AT TIME STEP     15, STRESS PERIOD     10
 UBDSV06 SAVING              LAK IN MODEL E13              PACKAGE E13             CONNECTED TO MODEL E13              PACKAGE LAK-1            ON UNIT   1025 AT TIME STEP     15, STRESS PERIOD     10
 UBDSV06 SAVING        UZF-GWRCH IN MODEL E13              PACKAGE E13             CONNECTED TO MODEL E13              PACKAGE UZF-1            ON UNIT   1025 AT TIME STEP     15, STRESS PERIOD     10
 UBDSV06 SAVING          UZF-GWD IN MODEL E13              PACKAGE E13             CONNECTED TO MODEL E13              PACKAGE UZF-1            ON UNIT   1025 AT TIME STEP     15, STRESS PERIOD     10
 UBDSV06 SAVING   UZF-GWD TO-MVR IN MODEL E13              PACKAGE E13             CONNECTED TO MODEL E13              PACKAGE UZF-1            ON UNIT   1025 AT TIME STEP     15, STRESS PERIOD     10
 UBDSV06 SAVING         UZF-GWET IN MODEL E13              PACKAGE E13             CONNECTED TO MODEL E13              PACKAGE UZF-1            ON UNIT   1025 AT TIME STEP     15, STRESS PERIOD     10
 UBDSV06 SAVING     FLOW-JA-FACE IN MODEL E13              PACKAGE SFR-1           CONNECTED TO MODEL E13              PACKAGE SFR-1            ON UNIT   1017 AT TIME STEP     15, STRESS PERIOD     10
 UBDSV06 SAVING              GWF IN MODEL E13              PACKAGE SFR-1           CONNECTED TO MODEL E13              PACKAGE E13              ON UNIT   1017 AT TIME STEP     15, STRESS PERIOD     10
 UBDSV06 SAVING         RAINFALL IN MODEL E13              PACKAGE SFR-1           CONNECTED TO MODEL E13              PACKAGE SFR-1            ON UNIT   1017 AT TIME STEP     15, STRESS PERIOD     10
 UBDSV06 SAVING      EVAPORATION IN MODEL E13              PACKAGE SFR-1           CONNECTED TO MODEL E13              PACKAGE SFR-1            ON UNIT   1017 AT TIME STEP     15, STRESS PERIOD     10
 UBDSV06 SAVING           RUNOFF IN MODEL E13              PACKAGE SFR-1           CONNECTED TO MODEL E13              PACKAGE SFR-1            ON UNIT   1017 AT TIME STEP     15, STRESS PERIOD     10
 UBDSV06 SAVING       EXT-INFLOW IN MODEL E13              PACKAGE SFR-1           CONNECTED TO MODEL E13              PACKAGE SFR-1            ON UNIT   1017 AT TIME STEP     15, STRESS PERIOD     10
 UBDSV06 SAVING      EXT-OUTFLOW IN MODEL E13              PACKAGE SFR-1           CONNECTED TO MODEL E13              PACKAGE SFR-1            ON UNIT   1017 AT TIME STEP     15, STRESS PERIOD     10
 UBDSV06 SAVING          STORAGE IN MODEL E13              PACKAGE SFR-1           CONNECTED TO MODEL E13              PACKAGE SFR-1            ON UNIT   1017 AT TIME STEP     15, STRESS PERIOD     10
 UBDSV06 SAVING         FROM-MVR IN MODEL E13              PACKAGE SFR-1           CONNECTED TO MODEL E13              PACKAGE SFR-1            ON UNIT   1017 AT TIME STEP     15, STRESS PERIOD     10
 UBDSV06 SAVING           TO-MVR IN MODEL E13              PACKAGE SFR-1           CONNECTED TO MODEL E13              PACKAGE SFR-1            ON UNIT   1017 AT TIME STEP     15, STRESS PERIOD     10
 UBDSV06 SAVING              GWF IN MODEL E13              PACKAGE LAK-1           CONNECTED TO MODEL E13              PACKAGE E13              ON UNIT   1019 AT TIME STEP     15, STRESS PERIOD     10
 UBDSV06 SAVING         RAINFALL IN MODEL E13              PACKAGE LAK-1           CONNECTED TO MODEL E13              PACKAGE LAK-1            ON UNIT   1019 AT TIME STEP     15, STRESS PERIOD     10
 UBDSV06 SAVING      EVAPORATION IN MODEL E13              PACKAGE LAK-1           CONNECTED TO MODEL E13              PACKAGE LAK-1            ON UNIT   1019 AT TIME STEP     15, STRESS PERIOD     10
 UBDSV06 SAVING           RUNOFF IN MODEL E13              PACKAGE LAK-1           CONNECTED TO MODEL E13              PACKAGE LAK-1            ON UNIT   1019 AT TIME STEP     15, STRESS PERIOD     10
 UBDSV06 SAVING       EXT-INFLOW IN MODEL E13              PACKAGE LAK-1           CONNECTED TO MODEL E13              PACKAGE LAK-1            ON UNIT   1019 AT TIME STEP     15, STRESS PERIOD     10
 UBDSV06 SAVING       WITHDRAWAL IN MODEL E13              PACKAGE LAK-1           CONNECTED TO MODEL E13              PACKAGE LAK-1            ON UNIT   1019 AT TIME STEP     15, STRESS PERIOD     10
 UBDSV06 SAVING      EXT-OUTFLOW IN MODEL E13              PACKAGE LAK-1           CONNECTED TO MODEL E13              PACKAGE LAK-1            ON UNIT   1019 AT TIME STEP     15, STRESS PERIOD     10
 UBDSV06 SAVING          STORAGE IN MODEL E13              PACKAGE LAK-1           CONNECTED TO MODEL E13              PACKAGE LAK-1            ON UNIT   1019 AT TIME STEP     15, STRESS PERIOD     10
 UBDSV06 SAVING         CONSTANT IN MODEL E13              PACKAGE LAK-1           CONNECTED TO MODEL E13              PACKAGE LAK-1            ON UNIT   1019 AT TIME STEP     15, STRESS PERIOD     10
 UBDSV06 SAVING         FROM-MVR IN MODEL E13              PACKAGE LAK-1           CONNECTED TO MODEL E13              PACKAGE LAK-1            ON UNIT   1019 AT TIME STEP     15, STRESS PERIOD     10
 UBDSV06 SAVING           TO-MVR IN MODEL E13              PACKAGE LAK-1           CONNECTED TO MODEL E13              PACKAGE LAK-1            ON UNIT   1019 AT TIME STEP     15, STRESS PERIOD     10
 UBDSV06 SAVING     FLOW-JA-FACE IN MODEL E13              PACKAGE UZF-1           CONNECTED TO MODEL E13              PACKAGE UZF-1            ON UNIT   1021 AT TIME STEP     15, STRESS PERIOD     10
 UBDSV06 SAVING              GWF IN MODEL E13              PACKAGE UZF-1           CONNECTED TO MODEL E13              PACKAGE E13              ON UNIT   1021 AT TIME STEP     15, STRESS PERIOD     10
 UBDSV06 SAVING     INFILTRATION IN MODEL E13              PACKAGE UZF-1           CONNECTED TO MODEL E13              PACKAGE UZF-1            ON UNIT   1021 AT TIME STEP     15, STRESS PERIOD     10
 UBDSV06 SAVING          REJ-INF IN MODEL E13              PACKAGE UZF-1           CONNECTED TO MODEL E13              PACKAGE UZF-1            ON UNIT   1021 AT TIME STEP     15, STRESS PERIOD     10
 UBDSV06 SAVING             UZET IN MODEL E13              PACKAGE UZF-1           CONNECTED TO MODEL E13              PACKAGE UZF-1            ON UNIT   1021 AT TIME STEP     15, STRESS PERIOD     10
 UBDSV06 SAVING          STORAGE IN MODEL E13              PACKAGE UZF-1           CONNECTED TO MODEL E13              PACKAGE UZF-1            ON UNIT   1021 AT TIME STEP     15, STRESS PERIOD     10
 UBDSV06 SAVING         FROM-MVR IN MODEL E13              PACKAGE UZF-1           CONNECTED TO MODEL E13              PACKAGE UZF-1            ON UNIT   1021 AT TIME STEP     15, STRESS PERIOD     10
 UBDSV06 SAVING   REJ-INF-TO-MVR IN MODEL E13              PACKAGE UZF-1           CONNECTED TO MODEL E13              PACKAGE UZF-1            ON UNIT   1021 AT TIME STEP     15, STRESS PERIOD     10
 UBDSV06 SAVING       MOVER-FLOW IN MODEL E13              PACKAGE UZF-1           CONNECTED TO MODEL E13              PACKAGE UZF-1            ON UNIT   1023 AT TIME STEP     15, STRESS PERIOD     10
 UBDSV06 SAVING       MOVER-FLOW IN MODEL E13              PACKAGE UZF-1           CONNECTED TO MODEL E13              PACKAGE SFR-1            ON UNIT   1023 AT TIME STEP     15, STRESS PERIOD     10
 UBDSV06 SAVING       MOVER-FLOW IN MODEL E13              PACKAGE UZF-1           CONNECTED TO MODEL E13              PACKAGE LAK-1            ON UNIT   1023 AT TIME STEP     15, STRESS PERIOD     10
 UBDSV06 SAVING       MOVER-FLOW IN MODEL E13              PACKAGE UZF-1           CONNECTED TO MODEL E13              PACKAGE WEL-1            ON UNIT   1023 AT TIME STEP     15, STRESS PERIOD     10
 UBDSV06 SAVING       MOVER-FLOW IN MODEL E13              PACKAGE SFR-1           CONNECTED TO MODEL E13              PACKAGE UZF-1            ON UNIT   1023 AT TIME STEP     15, STRESS PERIOD     10
 UBDSV06 SAVING       MOVER-FLOW IN MODEL E13              PACKAGE SFR-1           CONNECTED TO MODEL E13              PACKAGE SFR-1            ON UNIT   1023 AT TIME STEP     15, STRESS PERIOD     10
 UBDSV06 SAVING       MOVER-FLOW IN MODEL E13              PACKAGE SFR-1           CONNECTED TO MODEL E13              PACKAGE LAK-1            ON UNIT   1023 AT TIME STEP     15, STRESS PERIOD     10
 UBDSV06 SAVING       MOVER-FLOW IN MODEL E13              PACKAGE SFR-1           CONNECTED TO MODEL E13              PACKAGE WEL-1            ON UNIT   1023 AT TIME STEP     15, STRESS PERIOD     10
 UBDSV06 SAVING       MOVER-FLOW IN MODEL E13              PACKAGE LAK-1           CONNECTED TO MODEL E13              PACKAGE UZF-1            ON UNIT   1023 AT TIME STEP     15, STRESS PERIOD     10
 UBDSV06 SAVING       MOVER-FLOW IN MODEL E13              PACKAGE LAK-1           CONNECTED TO MODEL E13              PACKAGE SFR-1            ON UNIT   1023 AT TIME STEP     15, STRESS PERIOD     10
 UBDSV06 SAVING       MOVER-FLOW IN MODEL E13              PACKAGE LAK-1           CONNECTED TO MODEL E13              PACKAGE LAK-1            ON UNIT   1023 AT TIME STEP     15, STRESS PERIOD     10
 UBDSV06 SAVING       MOVER-FLOW IN MODEL E13              PACKAGE LAK-1           CONNECTED TO MODEL E13              PACKAGE WEL-1            ON UNIT   1023 AT TIME STEP     15, STRESS PERIOD     10
 UBDSV06 SAVING       MOVER-FLOW IN MODEL E13              PACKAGE WEL-1           CONNECTED TO MODEL E13              PACKAGE UZF-1            ON UNIT   1023 AT TIME STEP     15, STRESS PERIOD     10
 UBDSV06 SAVING       MOVER-FLOW IN MODEL E13              PACKAGE WEL-1           CONNECTED TO MODEL E13              PACKAGE SFR-1            ON UNIT   1023 AT TIME STEP     15, STRESS PERIOD     10
 UBDSV06 SAVING       MOVER-FLOW IN MODEL E13              PACKAGE WEL-1           CONNECTED TO MODEL E13              PACKAGE LAK-1            ON UNIT   1023 AT TIME STEP     15, STRESS PERIOD     10
 UBDSV06 SAVING       MOVER-FLOW IN MODEL E13              PACKAGE WEL-1           CONNECTED TO MODEL E13              PACKAGE WEL-1            ON UNIT   1023 AT TIME STEP     15, STRESS PERIOD     10

 WEL PACKAGE (WEL-1) FLOW RATES   PERIOD     10   STEP       15
 -----------------------------------------------
   NUMBER   CELLID                    RATE      
 -----------------------------------------------
     1      (1,6,4)               0.0000000     
     2      (1,6,5)               0.0000000     
     3      (1,7,4)               0.0000000     
     4      (1,7,5)               0.0000000     
     5      (1,8,4)               0.0000000     
     6      (1,8,5)               0.0000000     
     7      (1,9,4)               0.0000000     
     8      (1,9,5)               0.0000000     
     9      (1,10,4)              0.0000000     
     10     (1,10,5)              0.0000000     
 -----------------------------------------------




 WEL PACKAGE (WEL-1) FLOW RATES TO-MVR   PERIOD     10   STEP       15
 -----------------------------------------------
   NUMBER   CELLID                    RATE      
 -----------------------------------------------
     1      (1,6,4)               0.0000000     
     2      (1,6,5)               0.0000000     
     3      (1,7,4)               0.0000000     
     4      (1,7,5)               0.0000000     
     5      (1,8,4)               0.0000000     
     6      (1,8,5)               0.0000000     
     7      (1,9,4)               0.0000000     
     8      (1,9,5)               0.0000000     
     9      (1,10,4)              0.0000000     
     10     (1,10,5)              0.0000000     
 -----------------------------------------------




 SFR PACKAGE (SFR-1) FLOW RATES   PERIOD     10   STEP       15
 ----------------------------------------------------------------------------------------
   NUMBER   CELLID                    RATE       NAME                                    
 ----------------------------------------------------------------------------------------
     1      (1,1,1)               0.22868377     ALLREACHES                              
     2      (1,2,2)               0.35499870     ALLREACHES                              
     3      (1,3,3)               0.30357347     ALLREACHES                              
     4      (1,3,4)               0.28021936     ALLREACHES                              
     5      (1,4,5)               0.29960805     ALLREACHES                              
     6      (1,5,6)               0.22987955     ALLREACHES                              
     7      (1,6,6)               0.22936563     ALLREACHES                              
     8      (1,7,6)               0.22884928     ALLREACHES                              
     9      (1,8,6)               0.22833044     ALLREACHES                              
     10     (1,3,5)               2.12214188E-02 ALLREACHES                              
     11     (1,3,6)               1.99133007E-02 ALLREACHES                              
     12     (1,3,7)               1.67956407E-02 ALLREACHES                              
     13     (1,4,8)               2.07205450E-02 ALLREACHES                              
     14     (1,5,8)               1.57905563E-02 ALLREACHES                              
     15     (1,6,8)               5.93648362E-03 ALLREACHES                              
     16     (1,5,10)              9.09197693E-02 ALLREACHES                              
     17     (1,5,9)               0.18157734     ALLREACHES                              
     18     (1,6,8)               0.12689514     ALLREACHES                              
     19     (1,6,8)               0.17138468     ALLREACHES                              
     20     (1,7,7)               0.21384773     ALLREACHES                              
     21     (1,8,7)               0.14943953     ALLREACHES                              
     22     (1,8,6)               0.10661428     ALLREACHES                              
     23     (1,9,6)               0.24837387     ALLREACHES                              
     24     (1,12,7)              2.55184615E-02 ALLREACHES                              
     25     (1,13,7)              2.80662437E-02 ALLREACHES                              
     26     (1,14,9)              2.6922030      ALLREACHES                              
     27     (1,13,8)              2.6824902      ALLREACHES                              
     28     (1,13,7)              2.6727412      ALLREACHES                              
     29     (1,13,6)             -2.1055251      ALLREACHES                              
     30     (1,13,2)             -3.1243176      ALLREACHES                              
     31     (1,13,1)             -1.3201820      ALLREACHES                              
 ----------------------------------------------------------------------------------------




 LAK PACKAGE (LAK-1) FLOW RATES   PERIOD     10   STEP       15
 -----------------------------------------------
   NUMBER   CELLID                    RATE      
 -----------------------------------------------
     1      (1,9,7)               8.39642478E-03
     2      (1,10,6)              1.08190515E-02
     3      (2,10,7)              0.98344666    
     4      (1,9,8)               5.99013577E-03
     5      (1,10,9)              1.05343288E-04
     6      (2,10,8)              0.96574009    
     7      (1,11,6)              1.16967351E-02
     8      (1,12,7)              1.09645113E-02
     9      (2,11,7)              0.97348476    
     10     (1,11,9)              2.62870803E-03
     11     (1,12,8)              1.07244404E-02
     12     (2,11,8)              0.95231816    
     13     (1,10,3)             -1.20517315E-03
     14     (1,11,2)             -1.06030202E-03
     15     (2,11,3)             -0.67129564    
     16     (1,10,4)             -1.10964252E-03
     17     (2,11,4)             -0.68907847    
     18     (1,10,5)             -2.91325730E-03
     19     (1,11,6)             -4.08928374E-03
     20     (2,11,5)             -0.71261355    
     21     (1,12,2)             -3.99391356E-03
     22     (2,12,3)             -0.65067866    
     23     (2,12,4)             -0.68433433    
     24     (1,12,6)             -5.67377622E-03
     25     (2,12,5)             -0.71645346    
     26     (1,13,2)             -1.03330725E-03
     27     (2,13,3)             -0.65119914    
     28     (2,13,4)             -0.69478804    
     29     (1,13,6)             -6.46045900E-03
     30     (2,13,5)             -0.73077511    
     31     (1,14,2)             -4.44609989E-03
     32     (1,15,3)              0.0000000     
     33     (2,14,3)             -0.68166568    
     34     (1,15,4)              0.0000000     
     35     (2,14,4)             -0.71893972    
     36     (1,14,6)             -4.50039242E-03
     37     (1,15,5)              0.0000000     
     38     (2,14,5)             -0.75182524    
 -----------------------------------------------




 SFR-1 PACKAGE - SUMMARY OF FLOWS FOR EACH CONTROL VOLUME   PERIOD     10   STEP       15
 --------------------------------------------------------------------------------------------------------------------------------------------------------------------------------------------------------
                                                                                                                                                                                               PERCENT   
   NUMBER   CELLID                  INFLOW      OUTFLOW        GWF        RAINFALL   EVAPORATION     RUNOFF     EXT INFLOW  EXT OUTFLOW    STORAGE      FROM MVR      TO MVR      IN - OUT    DIFFERENCE 
 --------------------------------------------------------------------------------------------------------------------------------------------------------------------------------------------------------
     1      (1,1,1)               0.0000      -24.771      -0.22868      0.0000       0.0000       0.0000       25.000       0.0000       0.0000       0.0000       0.0000       0.0000       0.0000     
     2      (1,2,2)               24.771      -24.416      -0.35500      0.0000       0.0000       0.0000       0.0000       0.0000       0.0000       0.0000       0.0000       0.0000       0.0000     
     3      (1,3,3)               24.416      -24.113      -0.30357      0.0000       0.0000       0.0000       0.0000       0.0000       0.0000       0.0000       0.0000       0.0000       0.0000     
     4      (1,3,4)               24.113      -23.833      -0.28022      0.0000       0.0000       0.0000       0.0000       0.0000       0.0000       0.0000       0.0000       0.0000       0.0000     
     5      (1,4,5)               13.833      -13.533      -0.29961      0.0000       0.0000       0.0000       0.0000       0.0000       0.0000       0.0000       0.0000       0.0000       0.0000     
     6      (1,5,6)               13.533      -13.303      -0.22988      0.0000       0.0000       0.0000       0.0000       0.0000       0.0000       0.0000       0.0000       0.0000       0.0000     
     7      (1,6,6)               13.303      -13.074      -0.22937      0.0000       0.0000       0.0000       0.0000       0.0000       0.0000       0.0000       0.0000       0.0000       0.0000     
     8      (1,7,6)               13.074      -12.845      -0.22885      0.0000       0.0000       0.0000       0.0000       0.0000       0.0000       0.0000       0.0000       0.0000       0.0000     
     9      (1,8,6)               12.845      -12.616      -0.22833      0.0000       0.0000       0.0000       0.0000       0.0000       0.0000       0.0000       0.0000       0.0000       0.0000     
     10     (1,3,5)               10.000      -9.9788      -2.12214E-02  0.0000       0.0000       0.0000       0.0000       0.0000       0.0000       0.0000       0.0000       0.0000       0.0000     
     11     (1,3,6)               9.9788      -9.9589      -1.99133E-02  0.0000       0.0000       0.0000       0.0000       0.0000       0.0000       0.0000       0.0000       0.0000       0.0000     
     12     (1,3,7)               9.9589      -9.9421      -1.67956E-02  0.0000       0.0000       0.0000       0.0000       0.0000       0.0000       0.0000       0.0000       0.0000       0.0000     
     13     (1,4,8)               9.9421      -9.9213      -2.07205E-02  0.0000       0.0000       0.0000       0.0000       0.0000       0.0000       0.0000       0.0000       0.0000       0.0000     
     14     (1,5,8)               9.9213      -9.9056      -1.57906E-02  0.0000       0.0000       0.0000       0.0000       0.0000       0.0000       0.0000       0.0000       0.0000       0.0000     
     15     (1,6,8)               9.9056      -9.8996      -5.93648E-03  0.0000       0.0000       0.0000       0.0000       0.0000       0.0000       0.0000       0.0000       0.0000       0.0000     
     16     (1,5,10)              0.0000      -9.9091      -9.09198E-02  0.0000       0.0000       0.0000       10.000       0.0000       0.0000       0.0000       0.0000       0.0000       0.0000     
     17     (1,5,9)               9.9091      -9.7275      -0.18158      0.0000       0.0000       0.0000       0.0000       0.0000       0.0000       0.0000       0.0000       0.0000       0.0000     
     18     (1,6,8)               9.7275      -9.6006      -0.12690      0.0000       0.0000       0.0000       0.0000       0.0000       0.0000       0.0000       0.0000       0.0000       0.0000     
     19     (1,6,8)               19.500      -19.329      -0.17138      0.0000       0.0000       0.0000       0.0000       0.0000       0.0000       0.0000       0.0000       0.0000       0.0000     
     20     (1,7,7)               19.329      -19.115      -0.21385      0.0000       0.0000       0.0000       0.0000       0.0000       0.0000       0.0000       0.0000       0.0000       0.0000     
     21     (1,8,7)               19.115      -18.966      -0.14944      0.0000       0.0000       0.0000       0.0000       0.0000       0.0000       0.0000       0.0000       0.0000       0.0000     
     22     (1,8,6)               18.966      -18.859      -0.10661      0.0000       0.0000       0.0000       0.0000       0.0000       0.0000       0.0000       0.0000       0.0000       0.0000     
     23     (1,9,6)               31.475       0.0000      -0.24837      0.0000       0.0000       0.0000       0.0000       0.0000       0.0000       0.0000      -31.227       0.0000       0.0000     
     24     (1,12,7)              0.0000      -32.707      -2.55185E-02  0.0000       0.0000       0.0000       0.0000       0.0000       0.0000       32.732       0.0000       0.0000       0.0000     
     25     (1,13,7)              32.707      -32.679      -2.80662E-02  0.0000       0.0000       0.0000       0.0000       0.0000       0.0000       0.0000       0.0000       0.0000       0.0000     
     26     (1,14,9)              0.0000      -147.31      -2.6922       0.0000       0.0000       0.0000       150.00       0.0000       0.0000       0.0000       0.0000       0.0000       0.0000     
     27     (1,13,8)              147.31      -144.63      -2.6825       0.0000       0.0000       0.0000       0.0000       0.0000       0.0000       0.0000       0.0000       0.0000       0.0000     
     28     (1,13,7)              144.63      -141.95      -2.6727       0.0000       0.0000       0.0000       0.0000       0.0000       0.0000       0.0000       0.0000       0.0000       0.0000     
     29     (1,13,6)              174.63       0.0000       2.1055       0.0000       0.0000       0.0000       0.0000      -1.76372E-08  0.0000       0.0000      -176.74       0.0000       0.0000     
     30     (1,13,2)              0.0000      -191.28       3.1243       0.0000       0.0000       0.0000       0.0000       0.0000       0.0000       188.15       0.0000       0.0000       0.0000     
     31     (1,13,1)              191.28       0.0000       1.3202       0.0000       0.0000       0.0000       0.0000      -198.88       0.0000       6.2854       0.0000       0.0000       0.0000     
 --------------------------------------------------------------------------------------------------------------------------------------------------------------------------------------------------------



 LAK-1 PACKAGE - SUMMARY OF FLOWS FOR EACH CONTROL VOLUME   PERIOD     10   STEP       15
 -----------------------------------------------------------------------------------------------------------------------------------------------------------------------------------
                                                                                                                                                                          PERCENT   
   NUMBER       GWF        RAINFALL   EVAPORATION     RUNOFF     EXT INFLOW   WITHDRAWAL  EXT OUTFLOW    STORAGE      CONSTANT     FROM MVR      TO MVR      IN - OUT    DIFFERENCE 
 -----------------------------------------------------------------------------------------------------------------------------------------------------------------------------------
     1      -3.9363       5.0000      -1.0000       1.5000       0.0000       0.0000       0.0000      -5.85950E-02  0.0000       31.227      -32.732       5.03940E-08  1.33575E-07
     2       8.3901       3.6000      -3.3000       3.0000       0.0000      -0.12000     -8.43723E-08 -0.15580      0.0000       176.74      -188.15      -4.02283E-07 -2.09821E-07
 -----------------------------------------------------------------------------------------------------------------------------------------------------------------------------------



 WATER MOVER PACKAGE (MVR) FLOW RATES   PERIOD     10   STEP       15
 --------------------------------------------------------------------------------------------------------------------------
                                               PROVIDER  AVAILABLE   PROVIDED                                     RECEIVER 
   NUMBER           PROVIDER LOCATION             ID        RATE       RATE            RECEIVER LOCATION             ID    
 --------------------------------------------------------------------------------------------------------------------------
     1                  E13/SFR-1                 23      31.2       31.2                  E13/LAK-1                 1     
     2                  E13/LAK-1                 1       32.7       32.7                  E13/SFR-1                 24    
     3                  E13/SFR-1                 29      177.       177.                  E13/LAK-1                 2     
     4                  E13/LAK-1                 2       188.       188.                  E13/SFR-1                 30    
     5                  E13/UZF-1                 1       0.00       0.00                  E13/SFR-1                 1     
     6                  E13/UZF-1                 2       0.00       0.00                  E13/SFR-1                 2     
     7                  E13/UZF-1                 3       0.00       0.00                  E13/SFR-1                 2     
     8                  E13/UZF-1                 4       0.00       0.00                  E13/SFR-1                 2     
     9                  E13/UZF-1                 5       0.00       0.00                  E13/SFR-1                 3     
     10                 E13/UZF-1                 6       0.00       0.00                  E13/SFR-1                 11    
     11                 E13/UZF-1                 7       0.00       0.00                  E13/SFR-1                 12    
     12                 E13/UZF-1                 8       0.00       0.00                  E13/SFR-1                 12    
     13                 E13/UZF-1                 9       0.00       0.00                  E13/SFR-1                 2     
     14                 E13/UZF-1                 10      0.00       0.00                  E13/SFR-1                 3     
     15                 E13/UZF-1                 11      0.00       0.00                  E13/SFR-1                 4     
     16                 E13/UZF-1                 12      0.00       0.00                  E13/SFR-1                 10    
     17                 E13/UZF-1                 13      0.00       0.00                  E13/SFR-1                 11    
     18                 E13/UZF-1                 14      0.00       0.00                  E13/SFR-1                 12    
     19                 E13/UZF-1                 15      0.00       0.00                  E13/SFR-1                 13    
     20                 E13/UZF-1                 16      0.00       0.00                  E13/LAK-1                 2     
     21                 E13/UZF-1                 17      0.00       0.00                  E13/LAK-1                 2     
     22                 E13/UZF-1                 18      0.00       0.00                  E13/SFR-1                 3     
     23                 E13/UZF-1                 19      0.00       0.00                  E13/SFR-1                 4     
     24                 E13/UZF-1                 20      0.00       0.00                  E13/SFR-1                 5     
     25                 E13/UZF-1                 21      0.00       0.00                  E13/SFR-1                 6     
     26                 E13/UZF-1                 22      0.00       0.00                  E13/SFR-1                 6     
     27                 E13/UZF-1                 23      0.00       0.00                  E13/SFR-1                 13    
     28                 E13/UZF-1                 24      0.00       0.00                  E13/SFR-1                 17    
     29                 E13/UZF-1                 25      0.00       0.00                  E13/LAK-1                 2     
     30                 E13/UZF-1                 26      0.00       0.00                  E13/LAK-1                 2     
     31                 E13/UZF-1                 27      0.00       0.00                  E13/LAK-1                 2     
     32                 E13/UZF-1                 28      0.00       0.00                  E13/LAK-1                 2     
     33                 E13/UZF-1                 29      0.00       0.00                  E13/SFR-1                 5     
     34                 E13/UZF-1                 30      0.00       0.00                  E13/SFR-1                 6     
     35                 E13/UZF-1                 31      0.00       0.00                  E13/SFR-1                 6     
     36                 E13/UZF-1                 32      0.00       0.00                  E13/SFR-1                 14    
     37                 E13/UZF-1                 33      0.00       0.00                  E13/SFR-1                 17    
     38                 E13/UZF-1                 34      0.00       0.00                  E13/SFR-1                 16    
     39                 E13/UZF-1                 35      0.00       0.00                  E13/LAK-1                 2     
     40                 E13/UZF-1                 36      0.00       0.00                  E13/LAK-1                 2     
     41                 E13/UZF-1                 37      0.00       0.00                  E13/LAK-1                 2     
     42                 E13/UZF-1                 38      0.00       0.00                  E13/LAK-1                 2     
     43                 E13/UZF-1                 39      0.00       0.00                  E13/LAK-1                 2     
     44                 E13/UZF-1                 40      0.00       0.00                  E13/SFR-1                 7     
     45                 E13/UZF-1                 41      0.00       0.00                  E13/SFR-1                 7     
     46                 E13/UZF-1                 42      0.00       0.00                  E13/SFR-1                 19    
     47                 E13/UZF-1                 43      0.00       0.00                  E13/SFR-1                 17    
     48                 E13/UZF-1                 44      0.00       0.00                  E13/SFR-1                 16    
     49                 E13/UZF-1                 45      0.00       0.00                  E13/LAK-1                 2     
     50                 E13/UZF-1                 46      0.00       0.00                  E13/LAK-1                 2     
     51                 E13/UZF-1                 47      0.00       0.00                  E13/LAK-1                 2     
     52                 E13/UZF-1                 48      0.00       0.00                  E13/LAK-1                 2     
     53                 E13/UZF-1                 49      0.00       0.00                  E13/LAK-1                 2     
     54                 E13/UZF-1                 50      0.00       0.00                  E13/SFR-1                 8     
     55                 E13/UZF-1                 51      0.00       0.00                  E13/SFR-1                 20    
     56                 E13/UZF-1                 52      0.00       0.00                  E13/SFR-1                 20    
     57                 E13/UZF-1                 53      0.00       0.00                  E13/SFR-1                 20    
     58                 E13/UZF-1                 54      0.00       0.00                  E13/LAK-1                 2     
     59                 E13/UZF-1                 55      0.00       0.00                  E13/LAK-1                 2     
     60                 E13/UZF-1                 56      0.00       0.00                  E13/LAK-1                 2     
     61                 E13/UZF-1                 57      0.00       0.00                  E13/LAK-1                 2     
     62                 E13/UZF-1                 58      0.00       0.00                  E13/SFR-1                 9     
     63                 E13/UZF-1                 59      0.00       0.00                  E13/SFR-1                 21    
     64                 E13/UZF-1                 60      0.00       0.00                  E13/SFR-1                 21    
     65                 E13/UZF-1                 61      0.00       0.00                  E13/SFR-1                 21    
     66                 E13/UZF-1                 62      0.00       0.00                  E13/LAK-1                 2     
     67                 E13/UZF-1                 63      0.00       0.00                  E13/LAK-1                 2     
     68                 E13/UZF-1                 64      0.00       0.00                  E13/LAK-1                 2     
     69                 E13/UZF-1                 65      0.00       0.00                  E13/LAK-1                 2     
     70                 E13/UZF-1                 66      0.00       0.00                  E13/SFR-1                 23    
     71                 E13/UZF-1                 67      0.00       0.00                  E13/LAK-1                 1     
     72                 E13/UZF-1                 68      0.00       0.00                  E13/LAK-1                 1     
     73                 E13/UZF-1                 69      0.00       0.00                  E13/LAK-1                 1     
     74                 E13/UZF-1                 70      0.00       0.00                  E13/LAK-1                 2     
     75                 E13/UZF-1                 71      0.00       0.00                  E13/LAK-1                 2     
     76                 E13/UZF-1                 72      0.00       0.00                  E13/LAK-1                 2     
     77                 E13/UZF-1                 73      0.00       0.00                  E13/LAK-1                 2     
     78                 E13/UZF-1                 74      0.00       0.00                  E13/LAK-1                 1     
     79                 E13/UZF-1                 75      0.00       0.00                  E13/LAK-1                 1     
     80                 E13/UZF-1                 76      0.00       0.00                  E13/LAK-1                 1     
     81                 E13/UZF-1                 77      0.00       0.00                  E13/LAK-1                 2     
     82                 E13/UZF-1                 78      0.00       0.00                  E13/SFR-1                 9     
     83                 E13/UZF-1                 79      0.00       0.00                  E13/LAK-1                 1     
     84                 E13/UZF-1                 80      0.00       0.00                  E13/SFR-1                 31    
     85                 E13/UZF-1                 81      0.00       0.00                  E13/SFR-1                 30    
     86                 E13/UZF-1                 82      0.00       0.00                  E13/SFR-1                 9     
     87                 E13/UZF-1                 83      0.00       0.00                  E13/SFR-1                 24    
     88                 E13/UZF-1                 84      0.00       0.00                  E13/LAK-1                 1     
     89                 E13/UZF-1                 85      0.00       0.00                  E13/LAK-1                 1     
     90                 E13/UZF-1                 86      6.29       6.29                  E13/SFR-1                 31    
     91                 E13/UZF-1                 87      0.00       0.00                  E13/SFR-1                 30    
     92                 E13/UZF-1                 88      0.00       0.00                  E13/SFR-1                 29    
     93                 E13/UZF-1                 89      0.00       0.00                  E13/SFR-1                 28    
     94                 E13/UZF-1                 90      0.00       0.00                  E13/SFR-1                 27    
     95                 E13/UZF-1                 91      0.00       0.00                  E13/SFR-1                 26    
     96                 E13/UZF-1                 92      0.00       0.00                  E13/SFR-1                 30    
     97                 E13/UZF-1                 93      0.00       0.00                  E13/LAK-1                 2     
     98                 E13/UZF-1                 94      0.00       0.00                  E13/SFR-1                 28    
     99                 E13/UZF-1                 95      0.00       0.00                  E13/SFR-1                 27    
    100                 E13/UZF-1                 96      0.00       0.00                  E13/SFR-1                 26    
    101                 E13/UZF-1                 97      0.00       0.00                  E13/LAK-1                 2     
    102                 E13/UZF-1                 98      0.00       0.00                  E13/LAK-1                 2     
    103                 E13/UZF-1                 99      0.00       0.00                  E13/LAK-1                 2     
    104                 E13/UZF-1                100      0.00       0.00                  E13/LAK-1                 2     
    105                 E13/WEL-1                 1       0.00       0.00                  E13/UZF-1                 38    
    106                 E13/WEL-1                 2       0.00       0.00                  E13/UZF-1                 39    
    107                 E13/WEL-1                 3       0.00       0.00                  E13/UZF-1                 48    
    108                 E13/WEL-1                 4       0.00       0.00                  E13/UZF-1                 49    
    109                 E13/WEL-1                 5       0.00       0.00                  E13/UZF-1                 56    
    110                 E13/WEL-1                 6       0.00       0.00                  E13/UZF-1                 57    
    111                 E13/WEL-1                 7       0.00       0.00                  E13/UZF-1                 64    
    112                 E13/WEL-1                 8       0.00       0.00                  E13/UZF-1                 65    
    113                 E13/WEL-1                 9       0.00       0.00                  E13/UZF-1                 72    
    114                 E13/WEL-1                 10      0.00       0.00                  E13/UZF-1                 73    
 --------------------------------------------------------------------------------------------------------------------------



 SFR PACKAGE (SFR-1) STAGES FOR EACH CONTROL VOLUME   PERIOD     10   STEP       15
 ------------------------------------------------------------------------------------------------------------------------------------------------------
                                                                                                                               STREAMBED    STREAMBED  
 NAME                                       NUMBER   CELLID                  STAGE        DEPTH        WIDTH       GWF HEAD   CONDUCTANCE    GRADIENT  
 ------------------------------------------------------------------------------------------------------------------------------------------------------
 ALLREACHES                                   1      (1,1,1)               1094.3       1.2349       12.000       1019.3       5.40000E-02  1.4116     
 ALLREACHES                                   2      (1,2,2)               1089.3       1.2262       12.000       1019.6       8.40000E-02  1.4087     
 ALLREACHES                                   3      (1,3,3)               1083.6       1.2163       12.000       1019.4       7.20000E-02  1.4054     
 ALLREACHES                                   4      (1,3,4)               1078.6       1.2075       12.000       1019.6       6.66000E-02  1.4025     
 ALLREACHES                                   5      (1,4,5)               1072.8       0.84113      12.000       1019.7       7.80000E-02  1.2804     
 ALLREACHES                                   6      (1,5,6)               1067.3       0.83133      12.000       1019.2       6.00000E-02  1.2771     
 ALLREACHES                                   7      (1,6,6)               1062.6       0.82276      12.000       1018.9       6.00000E-02  1.2743     
 ALLREACHES                                   8      (1,7,6)               1057.9       0.81415      12.000       1018.5       6.00000E-02  1.2714     
 ALLREACHES                                   9      (1,8,6)               1053.2       0.80551      12.000       1018.5       6.00000E-02  1.2685     
 ALLREACHES                                   10     (1,3,5)               1074.6       0.93630      9.6364       1019.4       7.22727E-03  1.4681     
 ALLREACHES                                   11     (1,3,6)               1071.9       0.98022      8.9091       1019.7       6.68182E-03  1.4901     
 ALLREACHES                                   12     (1,3,7)               1069.3       1.0277       8.2182       1019.6       5.54727E-03  1.5139     
 ALLREACHES                                   13     (1,4,8)               1066.5       1.0884       7.4545       1018.7       6.70909E-03  1.5442     
 ALLREACHES                                   14     (1,5,8)               1063.6       1.1639       6.6545       1018.4       4.99091E-03  1.5819     
 ALLREACHES                                   15     (1,6,8)               1061.8       1.2200       6.1455       1019.0       1.84364E-03  1.6100     
 ALLREACHES                                   16     (1,5,10)              1078.4       0.63679      10.000       1018.6       2.50000E-02  1.2123     
 ALLREACHES                                   17     (1,5,9)               1071.5       0.63155      10.000       1019.0       5.00000E-02  1.2105     
 ALLREACHES                                   18     (1,6,8)               1063.8       0.62558      10.000       1019.0       3.50000E-02  1.2085     
 ALLREACHES                                   19     (1,6,8)               1060.0       1.2846       10.000       1019.0       4.00000E-02  1.4282     
 ALLREACHES                                   20     (1,7,7)               1056.9       1.2770       10.000       1018.7       5.00000E-02  1.4257     
 ALLREACHES                                   21     (1,8,7)               1054.1       1.2697       10.000       1018.5       3.50000E-02  1.4232     
 ALLREACHES                                   22     (1,8,6)               1052.1       1.2646       10.000       1018.5       2.50000E-02  1.4215     
 ALLREACHES                                   23     (1,9,6)               1046.6       1.1396       12.000       1017.9       6.00000E-02  1.3799     
 ALLREACHES                                   24     (1,12,7)              1037.7       1.2531       12.000       1019.3       6.00000E-03  1.4177     
 ALLREACHES                                   25     (1,13,7)              1030.2       1.2525       12.000       1023.0       6.60000E-03  1.4175     
 ALLREACHES                                   26     (1,14,9)              1034.8       1.4870       60.000       1026.7       0.60000      1.4957     
 ALLREACHES                                   27     (1,13,8)              1031.5       1.4708       60.000       1024.0       0.60000      1.4903     
 ALLREACHES                                   28     (1,13,7)              1028.1       1.4546       60.000       1023.0       0.60000      1.4849     
 ALLREACHES                                   29     (1,13,6)              1013.9       0.90919      60.000       1017.4       0.60000     -1.1697     
 ALLREACHES                                   30     (1,13,2)              998.30       1.4255       60.000       1003.5       0.60000     -1.7357     
 ALLREACHES                                   31     (1,13,1)              993.34       1.4635       60.000       997.01       0.36000     -1.2224     
 ------------------------------------------------------------------------------------------------------------------------------------------------------



 LAK PACKAGE (LAK-1) STAGES FOR EACH CONTROL VOLUME   PERIOD     10   STEP       15
 --------------------------------------------------------------
   NUMBER      STAGE     SURFACE AREA WETTED AREA     VOLUME   
 --------------------------------------------------------------
     1       1041.3       1.00000E+08  1.01383E+08  4.27538E+09
     2       1001.4       3.00000E+08  3.01467E+08  5.30054E+09
 --------------------------------------------------------------



 HEAD WILL BE SAVED ON UNIT 1026 AT END OF TIME STEP   15, STRESS PERIOD   10


  SFR-1 BUDGET FOR ENTIRE MODEL AT END OF TIME STEP   15, STRESS PERIOD  10
  ------------------------------------------------------------------------------

     CUMULATIVE SFR-1      L**3       RATES FOR THIS TIME STEP      L**3/T
     ------------------                 ------------------------

           IN:                                      IN:
           ---                                      ---
                 GWF =   152725040.5958                   GWF =           6.5500
            RAINFALL =           0.0000              RAINFALL =           0.0000
         EVAPORATION =           0.0000           EVAPORATION =           0.0000
              RUNOFF =           0.0000                RUNOFF =           0.0000
          EXT-INFLOW =  4861800000.0000            EXT-INFLOW =         185.0000
         EXT-OUTFLOW =       6.4949E-04           EXT-OUTFLOW =           0.0000
             STORAGE =           0.0000               STORAGE =           0.0000
            FROM-MVR =  5918283782.2090              FROM-MVR =         227.1686
              TO-MVR =           0.0000                TO-MVR =           0.0000

            TOTAL IN = 10932808822.8054              TOTAL IN =         418.7186

          OUT:                                     OUT:
          ----                                     ----
                 GWF =   312046799.2792                   GWF =          11.8740
            RAINFALL =           0.0000              RAINFALL =           0.0000
         EVAPORATION =           0.0000           EVAPORATION =           0.0000
              RUNOFF =           0.0000                RUNOFF =           0.0000
          EXT-INFLOW =           0.0000            EXT-INFLOW =           0.0000
         EXT-OUTFLOW =  5173447579.9900           EXT-OUTFLOW =         198.8809
             STORAGE =           0.0000               STORAGE =           0.0000
            FROM-MVR =           0.0000              FROM-MVR =           0.0000
              TO-MVR =  5447314443.5363                TO-MVR =         207.9637

           TOTAL OUT = 10932808822.8054             TOTAL OUT =         418.7186

            IN - OUT =      -1.9073E-06              IN - OUT =           0.0000

 PERCENT DISCREPANCY =          -0.00     PERCENT DISCREPANCY =           0.00



  LAK-1 BUDGET FOR ENTIRE MODEL AT END OF TIME STEP   15, STRESS PERIOD  10
  ------------------------------------------------------------------------------

     CUMULATIVE LAK-1      L**3       RATES FOR THIS TIME STEP      L**3/T
     ------------------                 ------------------------

           IN:                                      IN:
           ---                                      ---
                 GWF =   196098580.0890                   GWF =           8.3901
            RAINFALL =   226008000.0000              RAINFALL =           8.6000
         EVAPORATION =           0.0000           EVAPORATION =           0.0000
              RUNOFF =   118260000.0000                RUNOFF =           4.5000
          EXT-INFLOW =           0.0000            EXT-INFLOW =           0.0000
          WITHDRAWAL =           0.0000            WITHDRAWAL =           0.0000
         EXT-OUTFLOW =           0.0000           EXT-OUTFLOW =           0.0000
             STORAGE =      279894.1678               STORAGE =           0.0000
            CONSTANT =           0.0000              CONSTANT =           0.0000
            FROM-MVR =  5447314443.5363              FROM-MVR =         207.9637
              TO-MVR =           0.0000                TO-MVR =           0.0000

            TOTAL IN =  5987960917.7930              TOTAL IN =         229.4539

          OUT:                                     OUT:
          ----                                     ----
                 GWF =   107542574.5387                   GWF =           3.9363
            RAINFALL =           0.0000              RAINFALL =           0.0000
         EVAPORATION =   113004000.0000           EVAPORATION =           4.3000
              RUNOFF =           0.0000                RUNOFF =           0.0000
          EXT-INFLOW =           0.0000            EXT-INFLOW =           0.0000
          WITHDRAWAL =     3153600.0000            WITHDRAWAL =           0.1200
         EXT-OUTFLOW =           2.0915           EXT-OUTFLOW =       8.4372E-08
             STORAGE =     2908768.5820               STORAGE =           0.2144
            CONSTANT =           0.0000              CONSTANT =           0.0000
            FROM-MVR =           0.0000              FROM-MVR =           0.0000
              TO-MVR =  5761351962.5441                TO-MVR =         220.8831

           TOTAL OUT =  5987960907.7563             TOTAL OUT =         229.4539

            IN - OUT =          10.0367              IN - OUT =      -3.5189E-07

 PERCENT DISCREPANCY =           0.00     PERCENT DISCREPANCY =          -0.00



  UZF-1 BUDGET FOR ENTIRE MODEL AT END OF TIME STEP   15, STRESS PERIOD  10
  ------------------------------------------------------------------------------

     CUMULATIVE UZF-1      L**3       RATES FOR THIS TIME STEP      L**3/T
     ------------------                 ------------------------

           IN:                                      IN:
           ---                                      ---
                 GWF =           0.0000                   GWF =           0.0000
        INFILTRATION =  2982143235.6000          INFILTRATION =          15.3000
             REJ-INF =           0.0000               REJ-INF =           0.0000
                UZET =           0.0000                  UZET =           0.0000
             STORAGE =   983930328.3531               STORAGE =          77.2488
            FROM-MVR =   134028000.0000              FROM-MVR =           0.0000
      REJ-INF-TO-MVR =           0.0000        REJ-INF-TO-MVR =           0.0000

            TOTAL IN =  4100101563.9531              TOTAL IN =          92.5488

          OUT:                                     OUT:
          ----                                     ----
                 GWF =   443716741.2700                   GWF =          52.5075
        INFILTRATION =           0.0000          INFILTRATION =           0.0000
             REJ-INF =          11.4153               REJ-INF =       2.6922E-08
                UZET =   538102800.5538                  UZET =          20.9155
             STORAGE =  3108536441.0289               STORAGE =          19.0758
            FROM-MVR =           0.0000              FROM-MVR =           0.0000
      REJ-INF-TO-MVR =     9745533.6726        REJ-INF-TO-MVR =       5.0000E-02

           TOTAL OUT =  4100101527.9405             TOTAL OUT =          92.5488

            IN - OUT =          36.0126              IN - OUT =       3.8136E-06

 PERCENT DISCREPANCY =           0.00     PERCENT DISCREPANCY =           0.00



  WATER MOVER BUDGET FOR ENTIRE MODEL AT END OF TIME STEP   15, STRESS PERIOD  10
  ------------------------------------------------------------------------------

     CUMULATIVE WATER MOVER      L**3       RATES FOR THIS TIME STEP      L**3/T
     ------------------                 ------------------------

           IN:                                      IN:
           ---                                      ---
               UZF-1 =   156931819.6649                 UZF-1 =           6.2854
               SFR-1 =  5447314443.5363                 SFR-1 =         207.9637
               LAK-1 =  5761351962.5441                 LAK-1 =         220.8831
               WEL-1 =   134028000.0000                 WEL-1 =           0.0000

            TOTAL IN = 11499626225.7452              TOTAL IN =         435.1323

          OUT:                                     OUT:
          ----                                     ----
               UZF-1 =   134028000.0000                 UZF-1 =           0.0000
               SFR-1 =  5918283782.2090                 SFR-1 =         227.1686
               LAK-1 =  5447314443.5363                 LAK-1 =         207.9637
               WEL-1 =           0.0000                 WEL-1 =           0.0000

           TOTAL OUT = 11499626225.7452             TOTAL OUT =         435.1323

            IN - OUT =       1.9073E-06              IN - OUT =           0.0000

 PERCENT DISCREPANCY =           0.00     PERCENT DISCREPANCY =           0.00



  VOLUME BUDGET FOR ENTIRE MODEL AT END OF TIME STEP   15, STRESS PERIOD  10
  ---------------------------------------------------------------------------------------------------

     CUMULATIVE VOLUME      L**3       RATES FOR THIS TIME STEP      L**3/T          PACKAGE NAME    
     ------------------                 ------------------------                     ----------------

           IN:                                      IN:
           ---                                      ---
              STO-SS =      595672.0629                STO-SS =       1.0491E-02     STORAGE                          
              STO-SY =   179005934.7723                STO-SY =           4.2483     STORAGE                          
                 WEL =           0.0000                   WEL =           0.0000     WEL-1                            
          WEL-TO-MVR =           0.0000            WEL-TO-MVR =           0.0000     WEL-1                            
                 GHB =    18655865.4637                   GHB =           0.6956     GHB_0                            
                 SFR =   312046799.2792                   SFR =          11.8740     SFR-1                            
                 LAK =   107542574.5387                   LAK =           3.9363     LAK-1                            
           UZF-GWRCH =   443716741.2700             UZF-GWRCH =          52.5075     UZF-1                            
             UZF-GWD =           0.0000               UZF-GWD =           0.0000     UZF-1                            
      UZF-GWD TO-MVR =           0.0000        UZF-GWD TO-MVR =           0.0000     UZF-1                            
            UZF-GWET =           0.0000              UZF-GWET =           0.0000     UZF-1                            

            TOTAL IN =  1061563587.3868              TOTAL IN =          73.2721

          OUT:                                     OUT:
          ----                                     ----
              STO-SS =     2403617.2492                STO-SS =           0.2141     STORAGE                          
              STO-SY =   405630299.1727                STO-SY =          50.9558     STORAGE                          
                 WEL =           0.0000                   WEL =           0.0000     WEL-1                            
          WEL-TO-MVR =   134028000.0000            WEL-TO-MVR =           0.0000     WEL-1                            
                 GHB =     8991218.4104                   GHB =           0.3422     GHB_0                            
                 SFR =   152725266.5061                   SFR =           6.5500     SFR-1                            
                 LAK =   196098580.0890                   LAK =           8.3901     LAK-1                            
           UZF-GWRCH =           0.0000             UZF-GWRCH =           0.0000     UZF-1                            
             UZF-GWD =          86.8771               UZF-GWD =       3.3574E-06     UZF-1                            
      UZF-GWD TO-MVR =   147186285.9923        UZF-GWD TO-MVR =           6.2354     UZF-1                            
            UZF-GWET =    14488163.1731              UZF-GWET =           0.5839     UZF-1                            

           TOTAL OUT =  1061551517.4699             TOTAL OUT =          73.2715

            IN - OUT =       12069.9169              IN - OUT =       6.2329E-04

 PERCENT DISCREPANCY =           0.00     PERCENT DISCREPANCY =           0.00




         TIME SUMMARY AT END OF TIME STEP   15 IN STRESS PERIOD   10
                    SECONDS     MINUTES      HOURS       DAYS        YEARS
                    -----------------------------------------------------------
   TIME STEP LENGTH 1.75200E+05  2920.0      48.667      2.0278     5.55175E-03
 STRESS PERIOD TIME 2.62800E+06  43800.      730.00      30.417     8.32763E-02
         TOTAL TIME 2.62800E+07 4.38000E+05  7300.0      304.17     0.83276    


end timestep


start timestep kper="11" kstp="1" mode="normal"


 OUTPUT CONTROL FOR STRESS PERIOD 11 IS REPEATED USING SETTINGS FROM A PREVIOUS STRESS PERIOD.


 STRESS PERIOD 11 IS TRANSIENT


 REUSING MVRS FROM LAST STRESS PERIOD
 ----------------------------------
  WEL NO.    LAYER    ROW     COL  
 ----------------------------------
     1         1       4       8   
     2         1       4       9   
     3         1       5       8   
     4         1       5       9   
     5         1       6       6   
     6         1       6       7   
     7         1       7       4   
     8         1       7       5   
     9         1       8       2   
     10        1       8       3   
 ----------------------------------



 REUSING SFRS FROM LAST STRESS PERIOD

 REUSING LAKS FROM LAST STRESS PERIOD

end timestep


start timestep kper="11" kstp="2" mode="normal"


end timestep


start timestep kper="11" kstp="3" mode="normal"


end timestep


start timestep kper="11" kstp="4" mode="normal"


end timestep


start timestep kper="11" kstp="5" mode="normal"


end timestep


start timestep kper="11" kstp="6" mode="normal"


end timestep


start timestep kper="11" kstp="7" mode="normal"


end timestep


start timestep kper="11" kstp="8" mode="normal"


end timestep


start timestep kper="11" kstp="9" mode="normal"


end timestep


start timestep kper="11" kstp="10" mode="normal"


end timestep


start timestep kper="11" kstp="11" mode="normal"


end timestep


start timestep kper="11" kstp="12" mode="normal"


end timestep


start timestep kper="11" kstp="13" mode="normal"


end timestep


start timestep kper="11" kstp="14" mode="normal"


end timestep


start timestep kper="11" kstp="15" mode="normal"

 UBDSV1 SAVING           STO-SS ON UNIT   1025 AT TIME STEP     15, STRESS PERIOD     11
 UBDSV1 SAVING           STO-SY ON UNIT   1025 AT TIME STEP     15, STRESS PERIOD     11
 UBDSV1 SAVING     FLOW-JA-FACE ON UNIT   1025 AT TIME STEP     15, STRESS PERIOD     11
 UBDSV06 SAVING       DATA-SPDIS IN MODEL E13              PACKAGE NPF             CONNECTED TO MODEL E13              PACKAGE NPF              ON UNIT   1025 AT TIME STEP     15, STRESS PERIOD     11
 UBDSV06 SAVING              WEL IN MODEL E13              PACKAGE E13             CONNECTED TO MODEL E13              PACKAGE WEL-1            ON UNIT   1025 AT TIME STEP     15, STRESS PERIOD     11
 UBDSV06 SAVING       WEL-TO-MVR IN MODEL E13              PACKAGE E13             CONNECTED TO MODEL E13              PACKAGE WEL-1            ON UNIT   1025 AT TIME STEP     15, STRESS PERIOD     11
 UBDSV06 SAVING              GHB IN MODEL E13              PACKAGE E13             CONNECTED TO MODEL E13              PACKAGE GHB_0            ON UNIT   1025 AT TIME STEP     15, STRESS PERIOD     11
 UBDSV06 SAVING              SFR IN MODEL E13              PACKAGE E13             CONNECTED TO MODEL E13              PACKAGE SFR-1            ON UNIT   1025 AT TIME STEP     15, STRESS PERIOD     11
 UBDSV06 SAVING              LAK IN MODEL E13              PACKAGE E13             CONNECTED TO MODEL E13              PACKAGE LAK-1            ON UNIT   1025 AT TIME STEP     15, STRESS PERIOD     11
 UBDSV06 SAVING        UZF-GWRCH IN MODEL E13              PACKAGE E13             CONNECTED TO MODEL E13              PACKAGE UZF-1            ON UNIT   1025 AT TIME STEP     15, STRESS PERIOD     11
 UBDSV06 SAVING          UZF-GWD IN MODEL E13              PACKAGE E13             CONNECTED TO MODEL E13              PACKAGE UZF-1            ON UNIT   1025 AT TIME STEP     15, STRESS PERIOD     11
 UBDSV06 SAVING   UZF-GWD TO-MVR IN MODEL E13              PACKAGE E13             CONNECTED TO MODEL E13              PACKAGE UZF-1            ON UNIT   1025 AT TIME STEP     15, STRESS PERIOD     11
 UBDSV06 SAVING         UZF-GWET IN MODEL E13              PACKAGE E13             CONNECTED TO MODEL E13              PACKAGE UZF-1            ON UNIT   1025 AT TIME STEP     15, STRESS PERIOD     11
 UBDSV06 SAVING     FLOW-JA-FACE IN MODEL E13              PACKAGE SFR-1           CONNECTED TO MODEL E13              PACKAGE SFR-1            ON UNIT   1017 AT TIME STEP     15, STRESS PERIOD     11
 UBDSV06 SAVING              GWF IN MODEL E13              PACKAGE SFR-1           CONNECTED TO MODEL E13              PACKAGE E13              ON UNIT   1017 AT TIME STEP     15, STRESS PERIOD     11
 UBDSV06 SAVING         RAINFALL IN MODEL E13              PACKAGE SFR-1           CONNECTED TO MODEL E13              PACKAGE SFR-1            ON UNIT   1017 AT TIME STEP     15, STRESS PERIOD     11
 UBDSV06 SAVING      EVAPORATION IN MODEL E13              PACKAGE SFR-1           CONNECTED TO MODEL E13              PACKAGE SFR-1            ON UNIT   1017 AT TIME STEP     15, STRESS PERIOD     11
 UBDSV06 SAVING           RUNOFF IN MODEL E13              PACKAGE SFR-1           CONNECTED TO MODEL E13              PACKAGE SFR-1            ON UNIT   1017 AT TIME STEP     15, STRESS PERIOD     11
 UBDSV06 SAVING       EXT-INFLOW IN MODEL E13              PACKAGE SFR-1           CONNECTED TO MODEL E13              PACKAGE SFR-1            ON UNIT   1017 AT TIME STEP     15, STRESS PERIOD     11
 UBDSV06 SAVING      EXT-OUTFLOW IN MODEL E13              PACKAGE SFR-1           CONNECTED TO MODEL E13              PACKAGE SFR-1            ON UNIT   1017 AT TIME STEP     15, STRESS PERIOD     11
 UBDSV06 SAVING          STORAGE IN MODEL E13              PACKAGE SFR-1           CONNECTED TO MODEL E13              PACKAGE SFR-1            ON UNIT   1017 AT TIME STEP     15, STRESS PERIOD     11
 UBDSV06 SAVING         FROM-MVR IN MODEL E13              PACKAGE SFR-1           CONNECTED TO MODEL E13              PACKAGE SFR-1            ON UNIT   1017 AT TIME STEP     15, STRESS PERIOD     11
 UBDSV06 SAVING           TO-MVR IN MODEL E13              PACKAGE SFR-1           CONNECTED TO MODEL E13              PACKAGE SFR-1            ON UNIT   1017 AT TIME STEP     15, STRESS PERIOD     11
 UBDSV06 SAVING              GWF IN MODEL E13              PACKAGE LAK-1           CONNECTED TO MODEL E13              PACKAGE E13              ON UNIT   1019 AT TIME STEP     15, STRESS PERIOD     11
 UBDSV06 SAVING         RAINFALL IN MODEL E13              PACKAGE LAK-1           CONNECTED TO MODEL E13              PACKAGE LAK-1            ON UNIT   1019 AT TIME STEP     15, STRESS PERIOD     11
 UBDSV06 SAVING      EVAPORATION IN MODEL E13              PACKAGE LAK-1           CONNECTED TO MODEL E13              PACKAGE LAK-1            ON UNIT   1019 AT TIME STEP     15, STRESS PERIOD     11
 UBDSV06 SAVING           RUNOFF IN MODEL E13              PACKAGE LAK-1           CONNECTED TO MODEL E13              PACKAGE LAK-1            ON UNIT   1019 AT TIME STEP     15, STRESS PERIOD     11
 UBDSV06 SAVING       EXT-INFLOW IN MODEL E13              PACKAGE LAK-1           CONNECTED TO MODEL E13              PACKAGE LAK-1            ON UNIT   1019 AT TIME STEP     15, STRESS PERIOD     11
 UBDSV06 SAVING       WITHDRAWAL IN MODEL E13              PACKAGE LAK-1           CONNECTED TO MODEL E13              PACKAGE LAK-1            ON UNIT   1019 AT TIME STEP     15, STRESS PERIOD     11
 UBDSV06 SAVING      EXT-OUTFLOW IN MODEL E13              PACKAGE LAK-1           CONNECTED TO MODEL E13              PACKAGE LAK-1            ON UNIT   1019 AT TIME STEP     15, STRESS PERIOD     11
 UBDSV06 SAVING          STORAGE IN MODEL E13              PACKAGE LAK-1           CONNECTED TO MODEL E13              PACKAGE LAK-1            ON UNIT   1019 AT TIME STEP     15, STRESS PERIOD     11
 UBDSV06 SAVING         CONSTANT IN MODEL E13              PACKAGE LAK-1           CONNECTED TO MODEL E13              PACKAGE LAK-1            ON UNIT   1019 AT TIME STEP     15, STRESS PERIOD     11
 UBDSV06 SAVING         FROM-MVR IN MODEL E13              PACKAGE LAK-1           CONNECTED TO MODEL E13              PACKAGE LAK-1            ON UNIT   1019 AT TIME STEP     15, STRESS PERIOD     11
 UBDSV06 SAVING           TO-MVR IN MODEL E13              PACKAGE LAK-1           CONNECTED TO MODEL E13              PACKAGE LAK-1            ON UNIT   1019 AT TIME STEP     15, STRESS PERIOD     11
 UBDSV06 SAVING     FLOW-JA-FACE IN MODEL E13              PACKAGE UZF-1           CONNECTED TO MODEL E13              PACKAGE UZF-1            ON UNIT   1021 AT TIME STEP     15, STRESS PERIOD     11
 UBDSV06 SAVING              GWF IN MODEL E13              PACKAGE UZF-1           CONNECTED TO MODEL E13              PACKAGE E13              ON UNIT   1021 AT TIME STEP     15, STRESS PERIOD     11
 UBDSV06 SAVING     INFILTRATION IN MODEL E13              PACKAGE UZF-1           CONNECTED TO MODEL E13              PACKAGE UZF-1            ON UNIT   1021 AT TIME STEP     15, STRESS PERIOD     11
 UBDSV06 SAVING          REJ-INF IN MODEL E13              PACKAGE UZF-1           CONNECTED TO MODEL E13              PACKAGE UZF-1            ON UNIT   1021 AT TIME STEP     15, STRESS PERIOD     11
 UBDSV06 SAVING             UZET IN MODEL E13              PACKAGE UZF-1           CONNECTED TO MODEL E13              PACKAGE UZF-1            ON UNIT   1021 AT TIME STEP     15, STRESS PERIOD     11
 UBDSV06 SAVING          STORAGE IN MODEL E13              PACKAGE UZF-1           CONNECTED TO MODEL E13              PACKAGE UZF-1            ON UNIT   1021 AT TIME STEP     15, STRESS PERIOD     11
 UBDSV06 SAVING         FROM-MVR IN MODEL E13              PACKAGE UZF-1           CONNECTED TO MODEL E13              PACKAGE UZF-1            ON UNIT   1021 AT TIME STEP     15, STRESS PERIOD     11
 UBDSV06 SAVING   REJ-INF-TO-MVR IN MODEL E13              PACKAGE UZF-1           CONNECTED TO MODEL E13              PACKAGE UZF-1            ON UNIT   1021 AT TIME STEP     15, STRESS PERIOD     11
 UBDSV06 SAVING       MOVER-FLOW IN MODEL E13              PACKAGE UZF-1           CONNECTED TO MODEL E13              PACKAGE UZF-1            ON UNIT   1023 AT TIME STEP     15, STRESS PERIOD     11
 UBDSV06 SAVING       MOVER-FLOW IN MODEL E13              PACKAGE UZF-1           CONNECTED TO MODEL E13              PACKAGE SFR-1            ON UNIT   1023 AT TIME STEP     15, STRESS PERIOD     11
 UBDSV06 SAVING       MOVER-FLOW IN MODEL E13              PACKAGE UZF-1           CONNECTED TO MODEL E13              PACKAGE LAK-1            ON UNIT   1023 AT TIME STEP     15, STRESS PERIOD     11
 UBDSV06 SAVING       MOVER-FLOW IN MODEL E13              PACKAGE UZF-1           CONNECTED TO MODEL E13              PACKAGE WEL-1            ON UNIT   1023 AT TIME STEP     15, STRESS PERIOD     11
 UBDSV06 SAVING       MOVER-FLOW IN MODEL E13              PACKAGE SFR-1           CONNECTED TO MODEL E13              PACKAGE UZF-1            ON UNIT   1023 AT TIME STEP     15, STRESS PERIOD     11
 UBDSV06 SAVING       MOVER-FLOW IN MODEL E13              PACKAGE SFR-1           CONNECTED TO MODEL E13              PACKAGE SFR-1            ON UNIT   1023 AT TIME STEP     15, STRESS PERIOD     11
 UBDSV06 SAVING       MOVER-FLOW IN MODEL E13              PACKAGE SFR-1           CONNECTED TO MODEL E13              PACKAGE LAK-1            ON UNIT   1023 AT TIME STEP     15, STRESS PERIOD     11
 UBDSV06 SAVING       MOVER-FLOW IN MODEL E13              PACKAGE SFR-1           CONNECTED TO MODEL E13              PACKAGE WEL-1            ON UNIT   1023 AT TIME STEP     15, STRESS PERIOD     11
 UBDSV06 SAVING       MOVER-FLOW IN MODEL E13              PACKAGE LAK-1           CONNECTED TO MODEL E13              PACKAGE UZF-1            ON UNIT   1023 AT TIME STEP     15, STRESS PERIOD     11
 UBDSV06 SAVING       MOVER-FLOW IN MODEL E13              PACKAGE LAK-1           CONNECTED TO MODEL E13              PACKAGE SFR-1            ON UNIT   1023 AT TIME STEP     15, STRESS PERIOD     11
 UBDSV06 SAVING       MOVER-FLOW IN MODEL E13              PACKAGE LAK-1           CONNECTED TO MODEL E13              PACKAGE LAK-1            ON UNIT   1023 AT TIME STEP     15, STRESS PERIOD     11
 UBDSV06 SAVING       MOVER-FLOW IN MODEL E13              PACKAGE LAK-1           CONNECTED TO MODEL E13              PACKAGE WEL-1            ON UNIT   1023 AT TIME STEP     15, STRESS PERIOD     11
 UBDSV06 SAVING       MOVER-FLOW IN MODEL E13              PACKAGE WEL-1           CONNECTED TO MODEL E13              PACKAGE UZF-1            ON UNIT   1023 AT TIME STEP     15, STRESS PERIOD     11
 UBDSV06 SAVING       MOVER-FLOW IN MODEL E13              PACKAGE WEL-1           CONNECTED TO MODEL E13              PACKAGE SFR-1            ON UNIT   1023 AT TIME STEP     15, STRESS PERIOD     11
 UBDSV06 SAVING       MOVER-FLOW IN MODEL E13              PACKAGE WEL-1           CONNECTED TO MODEL E13              PACKAGE LAK-1            ON UNIT   1023 AT TIME STEP     15, STRESS PERIOD     11
 UBDSV06 SAVING       MOVER-FLOW IN MODEL E13              PACKAGE WEL-1           CONNECTED TO MODEL E13              PACKAGE WEL-1            ON UNIT   1023 AT TIME STEP     15, STRESS PERIOD     11

 WEL PACKAGE (WEL-1) FLOW RATES   PERIOD     11   STEP       15
 -----------------------------------------------
   NUMBER   CELLID                    RATE      
 -----------------------------------------------
     1      (1,6,4)               0.0000000     
     2      (1,6,5)               0.0000000     
     3      (1,7,4)               0.0000000     
     4      (1,7,5)               0.0000000     
     5      (1,8,4)               0.0000000     
     6      (1,8,5)               0.0000000     
     7      (1,9,4)               0.0000000     
     8      (1,9,5)               0.0000000     
     9      (1,10,4)              0.0000000     
     10     (1,10,5)              0.0000000     
 -----------------------------------------------




 WEL PACKAGE (WEL-1) FLOW RATES TO-MVR   PERIOD     11   STEP       15
 -----------------------------------------------
   NUMBER   CELLID                    RATE      
 -----------------------------------------------
     1      (1,6,4)              -2.5500000     
     2      (1,6,5)              -2.5500000     
     3      (1,7,4)              -2.5500000     
     4      (1,7,5)              -2.5500000     
     5      (1,8,4)              -2.5500000     
     6      (1,8,5)              -2.5500000     
     7      (1,9,4)              -2.5500000     
     8      (1,9,5)              -2.5500000     
     9      (1,10,4)             -2.5500000     
     10     (1,10,5)             -2.5500000     
 -----------------------------------------------




 SFR PACKAGE (SFR-1) FLOW RATES   PERIOD     11   STEP       15
 ----------------------------------------------------------------------------------------
   NUMBER   CELLID                    RATE       NAME                                    
 ----------------------------------------------------------------------------------------
     1      (1,1,1)               0.22868377     ALLREACHES                              
     2      (1,2,2)               0.35499870     ALLREACHES                              
     3      (1,3,3)               0.30357347     ALLREACHES                              
     4      (1,3,4)               0.28021936     ALLREACHES                              
     5      (1,4,5)               0.29960805     ALLREACHES                              
     6      (1,5,6)               0.22987955     ALLREACHES                              
     7      (1,6,6)               0.22936563     ALLREACHES                              
     8      (1,7,6)               0.22884928     ALLREACHES                              
     9      (1,8,6)               0.22833044     ALLREACHES                              
     10     (1,3,5)               2.12214188E-02 ALLREACHES                              
     11     (1,3,6)               1.99133007E-02 ALLREACHES                              
     12     (1,3,7)               1.67956407E-02 ALLREACHES                              
     13     (1,4,8)               2.07205450E-02 ALLREACHES                              
     14     (1,5,8)               1.57905563E-02 ALLREACHES                              
     15     (1,6,8)               5.93648362E-03 ALLREACHES                              
     16     (1,5,10)              9.09197693E-02 ALLREACHES                              
     17     (1,5,9)               0.18157734     ALLREACHES                              
     18     (1,6,8)               0.12689514     ALLREACHES                              
     19     (1,6,8)               0.17138468     ALLREACHES                              
     20     (1,7,7)               0.21384773     ALLREACHES                              
     21     (1,8,7)               0.14943953     ALLREACHES                              
     22     (1,8,6)               0.10661428     ALLREACHES                              
     23     (1,9,6)               0.24837387     ALLREACHES                              
     24     (1,12,7)              2.55252132E-02 ALLREACHES                              
     25     (1,13,7)              2.80736719E-02 ALLREACHES                              
     26     (1,14,9)              2.6922030      ALLREACHES                              
     27     (1,13,8)              2.6824902      ALLREACHES                              
     28     (1,13,7)              2.6727412      ALLREACHES                              
     29     (1,13,6)             -2.1058673      ALLREACHES                              
     30     (1,13,2)             -3.1703107      ALLREACHES                              
     31     (1,13,1)             -1.3199166      ALLREACHES                              
 ----------------------------------------------------------------------------------------




 LAK PACKAGE (LAK-1) FLOW RATES   PERIOD     11   STEP       15
 -----------------------------------------------
   NUMBER   CELLID                    RATE      
 -----------------------------------------------
     1      (1,9,7)               8.36773452E-03
     2      (1,10,6)              1.07802684E-02
     3      (2,10,7)              0.97945582    
     4      (1,9,8)               5.94826203E-03
     5      (1,10,9)              1.05416158E-04
     6      (2,10,8)              0.95564753    
     7      (1,11,6)              1.16175636E-02
     8      (1,12,7)              1.08516326E-02
     9      (2,11,7)              0.97005816    
     10     (1,11,9)              2.62907199E-03
     11     (1,12,8)              1.05923577E-02
     12     (2,11,8)              0.94510211    
     13     (1,10,3)             -1.09771099E-03
     14     (1,11,2)             -1.13103108E-03
     15     (2,11,3)             -0.67093917    
     16     (1,10,4)             -9.34814060E-04
     17     (2,11,4)             -0.68646233    
     18     (1,10,5)             -2.61637205E-03
     19     (1,11,6)             -4.15686564E-03
     20     (2,11,5)             -0.71012123    
     21     (1,12,2)             -4.15030895E-03
     22     (2,12,3)             -0.64913815    
     23     (2,12,4)             -0.68143913    
     24     (1,12,6)             -5.77660585E-03
     25     (2,12,5)             -0.71384232    
     26     (1,13,2)             -1.07294381E-03
     27     (2,13,3)             -0.64735942    
     28     (2,13,4)             -0.68985930    
     29     (1,13,6)             -6.46062287E-03
     30     (2,13,5)             -0.72606492    
     31     (1,14,2)             -4.43153564E-03
     32     (1,15,3)              0.0000000     
     33     (2,14,3)             -0.67442643    
     34     (1,15,4)              0.0000000     
     35     (2,14,4)             -0.71066929    
     36     (1,14,6)             -4.20991684E-03
     37     (1,15,5)              0.0000000     
     38     (2,14,5)             -0.74359026    
 -----------------------------------------------




 SFR-1 PACKAGE - SUMMARY OF FLOWS FOR EACH CONTROL VOLUME   PERIOD     11   STEP       15
 --------------------------------------------------------------------------------------------------------------------------------------------------------------------------------------------------------
                                                                                                                                                                                               PERCENT   
   NUMBER   CELLID                  INFLOW      OUTFLOW        GWF        RAINFALL   EVAPORATION     RUNOFF     EXT INFLOW  EXT OUTFLOW    STORAGE      FROM MVR      TO MVR      IN - OUT    DIFFERENCE 
 --------------------------------------------------------------------------------------------------------------------------------------------------------------------------------------------------------
     1      (1,1,1)               0.0000      -24.771      -0.22868      0.0000       0.0000       0.0000       25.000       0.0000       0.0000       0.0000       0.0000       0.0000       0.0000     
     2      (1,2,2)               24.771      -24.416      -0.35500      0.0000       0.0000       0.0000       0.0000       0.0000       0.0000       0.0000       0.0000       0.0000       0.0000     
     3      (1,3,3)               24.416      -24.113      -0.30357      0.0000       0.0000       0.0000       0.0000       0.0000       0.0000       0.0000       0.0000       0.0000       0.0000     
     4      (1,3,4)               24.113      -23.833      -0.28022      0.0000       0.0000       0.0000       0.0000       0.0000       0.0000       0.0000       0.0000       0.0000       0.0000     
     5      (1,4,5)               13.833      -13.533      -0.29961      0.0000       0.0000       0.0000       0.0000       0.0000       0.0000       0.0000       0.0000       0.0000       0.0000     
     6      (1,5,6)               13.533      -13.303      -0.22988      0.0000       0.0000       0.0000       0.0000       0.0000       0.0000       0.0000       0.0000       0.0000       0.0000     
     7      (1,6,6)               13.303      -13.074      -0.22937      0.0000       0.0000       0.0000       0.0000       0.0000       0.0000       0.0000       0.0000       0.0000       0.0000     
     8      (1,7,6)               13.074      -12.845      -0.22885      0.0000       0.0000       0.0000       0.0000       0.0000       0.0000       0.0000       0.0000       0.0000       0.0000     
     9      (1,8,6)               12.845      -12.616      -0.22833      0.0000       0.0000       0.0000       0.0000       0.0000       0.0000       0.0000       0.0000       0.0000       0.0000     
     10     (1,3,5)               10.000      -9.9788      -2.12214E-02  0.0000       0.0000       0.0000       0.0000       0.0000       0.0000       0.0000       0.0000       0.0000       0.0000     
     11     (1,3,6)               9.9788      -9.9589      -1.99133E-02  0.0000       0.0000       0.0000       0.0000       0.0000       0.0000       0.0000       0.0000       0.0000       0.0000     
     12     (1,3,7)               9.9589      -9.9421      -1.67956E-02  0.0000       0.0000       0.0000       0.0000       0.0000       0.0000       0.0000       0.0000       0.0000       0.0000     
     13     (1,4,8)               9.9421      -9.9213      -2.07205E-02  0.0000       0.0000       0.0000       0.0000       0.0000       0.0000       0.0000       0.0000       0.0000       0.0000     
     14     (1,5,8)               9.9213      -9.9056      -1.57906E-02  0.0000       0.0000       0.0000       0.0000       0.0000       0.0000       0.0000       0.0000       0.0000       0.0000     
     15     (1,6,8)               9.9056      -9.8996      -5.93648E-03  0.0000       0.0000       0.0000       0.0000       0.0000       0.0000       0.0000       0.0000       0.0000       0.0000     
     16     (1,5,10)              0.0000      -9.9091      -9.09198E-02  0.0000       0.0000       0.0000       10.000       0.0000       0.0000       0.0000       0.0000       0.0000       0.0000     
     17     (1,5,9)               9.9091      -9.7275      -0.18158      0.0000       0.0000       0.0000       0.0000       0.0000       0.0000       0.0000       0.0000       0.0000       0.0000     
     18     (1,6,8)               9.7275      -9.6006      -0.12690      0.0000       0.0000       0.0000       0.0000       0.0000       0.0000       0.0000       0.0000       0.0000       0.0000     
     19     (1,6,8)               19.500      -19.329      -0.17138      0.0000       0.0000       0.0000       0.0000       0.0000       0.0000       0.0000       0.0000       0.0000       0.0000     
     20     (1,7,7)               19.329      -19.115      -0.21385      0.0000       0.0000       0.0000       0.0000       0.0000       0.0000       0.0000       0.0000       0.0000       0.0000     
     21     (1,8,7)               19.115      -18.966      -0.14944      0.0000       0.0000       0.0000       0.0000       0.0000       0.0000       0.0000       0.0000       0.0000       0.0000     
     22     (1,8,6)               18.966      -18.859      -0.10661      0.0000       0.0000       0.0000       0.0000       0.0000       0.0000       0.0000       0.0000       0.0000       0.0000     
     23     (1,9,6)               31.475       0.0000      -0.24837      0.0000       0.0000       0.0000       0.0000       0.0000       0.0000       0.0000      -31.227       0.0000       0.0000     
     24     (1,12,7)              0.0000      -32.756      -2.55252E-02  0.0000       0.0000       0.0000       0.0000       0.0000       0.0000       32.781       0.0000       0.0000       0.0000     
     25     (1,13,7)              32.756      -32.728      -2.80737E-02  0.0000       0.0000       0.0000       0.0000       0.0000       0.0000       0.0000       0.0000       0.0000       0.0000     
     26     (1,14,9)              0.0000      -147.31      -2.6922       0.0000       0.0000       0.0000       150.00       0.0000       0.0000       0.0000       0.0000       0.0000       0.0000     
     27     (1,13,8)              147.31      -144.63      -2.6825       0.0000       0.0000       0.0000       0.0000       0.0000       0.0000       0.0000       0.0000       0.0000       0.0000     
     28     (1,13,7)              144.63      -141.95      -2.6727       0.0000       0.0000       0.0000       0.0000       0.0000       0.0000       0.0000       0.0000       0.0000       0.0000     
     29     (1,13,6)              174.68       0.0000       2.1059       0.0000       0.0000       0.0000       0.0000      -2.91493E-08  0.0000       0.0000      -176.79       0.0000       0.0000     
     30     (1,13,2)              0.0000      -191.45       3.1703       0.0000       0.0000       0.0000       0.0000       0.0000       0.0000       188.28       0.0000       0.0000       0.0000     
     31     (1,13,1)              191.45       0.0000       1.3199       0.0000       0.0000       0.0000       0.0000      -199.09       0.0000       6.3135       0.0000       0.0000       0.0000     
 --------------------------------------------------------------------------------------------------------------------------------------------------------------------------------------------------------



 LAK-1 PACKAGE - SUMMARY OF FLOWS FOR EACH CONTROL VOLUME   PERIOD     11   STEP       15
 -----------------------------------------------------------------------------------------------------------------------------------------------------------------------------------
                                                                                                                                                                          PERCENT   
   NUMBER       GWF        RAINFALL   EVAPORATION     RUNOFF     EXT INFLOW   WITHDRAWAL  EXT OUTFLOW    STORAGE      CONSTANT     FROM MVR      TO MVR      IN - OUT    DIFFERENCE 
 -----------------------------------------------------------------------------------------------------------------------------------------------------------------------------------
     1      -3.9112       5.0000      -1.0000       1.5000       0.0000       0.0000       0.0000      -3.47654E-02  0.0000       31.227      -32.781       6.19081E-08  1.64095E-07
     2       8.3400       3.6000      -3.3000       3.0000       0.0000      -0.12000      6.26498E-08 -2.15591E-02  0.0000       176.79      -188.28      -1.21315E-06 -6.32750E-07
 -----------------------------------------------------------------------------------------------------------------------------------------------------------------------------------



 WATER MOVER PACKAGE (MVR) FLOW RATES   PERIOD     11   STEP       15
 --------------------------------------------------------------------------------------------------------------------------
                                               PROVIDER  AVAILABLE   PROVIDED                                     RECEIVER 
   NUMBER           PROVIDER LOCATION             ID        RATE       RATE            RECEIVER LOCATION             ID    
 --------------------------------------------------------------------------------------------------------------------------
     1                  E13/SFR-1                 23      31.2       31.2                  E13/LAK-1                 1     
     2                  E13/LAK-1                 1       32.8       32.8                  E13/SFR-1                 24    
     3                  E13/SFR-1                 29      177.       177.                  E13/LAK-1                 2     
     4                  E13/LAK-1                 2       188.       188.                  E13/SFR-1                 30    
     5                  E13/UZF-1                 1       0.00       0.00                  E13/SFR-1                 1     
     6                  E13/UZF-1                 2       0.00       0.00                  E13/SFR-1                 2     
     7                  E13/UZF-1                 3       0.00       0.00                  E13/SFR-1                 2     
     8                  E13/UZF-1                 4       0.00       0.00                  E13/SFR-1                 2     
     9                  E13/UZF-1                 5       0.00       0.00                  E13/SFR-1                 3     
     10                 E13/UZF-1                 6       0.00       0.00                  E13/SFR-1                 11    
     11                 E13/UZF-1                 7       0.00       0.00                  E13/SFR-1                 12    
     12                 E13/UZF-1                 8       0.00       0.00                  E13/SFR-1                 12    
     13                 E13/UZF-1                 9       0.00       0.00                  E13/SFR-1                 2     
     14                 E13/UZF-1                 10      0.00       0.00                  E13/SFR-1                 3     
     15                 E13/UZF-1                 11      0.00       0.00                  E13/SFR-1                 4     
     16                 E13/UZF-1                 12      0.00       0.00                  E13/SFR-1                 10    
     17                 E13/UZF-1                 13      0.00       0.00                  E13/SFR-1                 11    
     18                 E13/UZF-1                 14      0.00       0.00                  E13/SFR-1                 12    
     19                 E13/UZF-1                 15      0.00       0.00                  E13/SFR-1                 13    
     20                 E13/UZF-1                 16      0.00       0.00                  E13/LAK-1                 2     
     21                 E13/UZF-1                 17      0.00       0.00                  E13/LAK-1                 2     
     22                 E13/UZF-1                 18      0.00       0.00                  E13/SFR-1                 3     
     23                 E13/UZF-1                 19      0.00       0.00                  E13/SFR-1                 4     
     24                 E13/UZF-1                 20      0.00       0.00                  E13/SFR-1                 5     
     25                 E13/UZF-1                 21      0.00       0.00                  E13/SFR-1                 6     
     26                 E13/UZF-1                 22      0.00       0.00                  E13/SFR-1                 6     
     27                 E13/UZF-1                 23      0.00       0.00                  E13/SFR-1                 13    
     28                 E13/UZF-1                 24      0.00       0.00                  E13/SFR-1                 17    
     29                 E13/UZF-1                 25      0.00       0.00                  E13/LAK-1                 2     
     30                 E13/UZF-1                 26      0.00       0.00                  E13/LAK-1                 2     
     31                 E13/UZF-1                 27      0.00       0.00                  E13/LAK-1                 2     
     32                 E13/UZF-1                 28      0.00       0.00                  E13/LAK-1                 2     
     33                 E13/UZF-1                 29      0.00       0.00                  E13/SFR-1                 5     
     34                 E13/UZF-1                 30      0.00       0.00                  E13/SFR-1                 6     
     35                 E13/UZF-1                 31      0.00       0.00                  E13/SFR-1                 6     
     36                 E13/UZF-1                 32      0.00       0.00                  E13/SFR-1                 14    
     37                 E13/UZF-1                 33      0.00       0.00                  E13/SFR-1                 17    
     38                 E13/UZF-1                 34      0.00       0.00                  E13/SFR-1                 16    
     39                 E13/UZF-1                 35      0.00       0.00                  E13/LAK-1                 2     
     40                 E13/UZF-1                 36      0.00       0.00                  E13/LAK-1                 2     
     41                 E13/UZF-1                 37      0.00       0.00                  E13/LAK-1                 2     
     42                 E13/UZF-1                 38      0.00       0.00                  E13/LAK-1                 2     
     43                 E13/UZF-1                 39      0.00       0.00                  E13/LAK-1                 2     
     44                 E13/UZF-1                 40      0.00       0.00                  E13/SFR-1                 7     
     45                 E13/UZF-1                 41      0.00       0.00                  E13/SFR-1                 7     
     46                 E13/UZF-1                 42      0.00       0.00                  E13/SFR-1                 19    
     47                 E13/UZF-1                 43      0.00       0.00                  E13/SFR-1                 17    
     48                 E13/UZF-1                 44      0.00       0.00                  E13/SFR-1                 16    
     49                 E13/UZF-1                 45      0.00       0.00                  E13/LAK-1                 2     
     50                 E13/UZF-1                 46      0.00       0.00                  E13/LAK-1                 2     
     51                 E13/UZF-1                 47      0.00       0.00                  E13/LAK-1                 2     
     52                 E13/UZF-1                 48      0.00       0.00                  E13/LAK-1                 2     
     53                 E13/UZF-1                 49      0.00       0.00                  E13/LAK-1                 2     
     54                 E13/UZF-1                 50      0.00       0.00                  E13/SFR-1                 8     
     55                 E13/UZF-1                 51      0.00       0.00                  E13/SFR-1                 20    
     56                 E13/UZF-1                 52      0.00       0.00                  E13/SFR-1                 20    
     57                 E13/UZF-1                 53      0.00       0.00                  E13/SFR-1                 20    
     58                 E13/UZF-1                 54      0.00       0.00                  E13/LAK-1                 2     
     59                 E13/UZF-1                 55      0.00       0.00                  E13/LAK-1                 2     
     60                 E13/UZF-1                 56      0.00       0.00                  E13/LAK-1                 2     
     61                 E13/UZF-1                 57      0.00       0.00                  E13/LAK-1                 2     
     62                 E13/UZF-1                 58      0.00       0.00                  E13/SFR-1                 9     
     63                 E13/UZF-1                 59      0.00       0.00                  E13/SFR-1                 21    
     64                 E13/UZF-1                 60      0.00       0.00                  E13/SFR-1                 21    
     65                 E13/UZF-1                 61      0.00       0.00                  E13/SFR-1                 21    
     66                 E13/UZF-1                 62      0.00       0.00                  E13/LAK-1                 2     
     67                 E13/UZF-1                 63      0.00       0.00                  E13/LAK-1                 2     
     68                 E13/UZF-1                 64      0.00       0.00                  E13/LAK-1                 2     
     69                 E13/UZF-1                 65      0.00       0.00                  E13/LAK-1                 2     
     70                 E13/UZF-1                 66      0.00       0.00                  E13/SFR-1                 23    
     71                 E13/UZF-1                 67      0.00       0.00                  E13/LAK-1                 1     
     72                 E13/UZF-1                 68      0.00       0.00                  E13/LAK-1                 1     
     73                 E13/UZF-1                 69      0.00       0.00                  E13/LAK-1                 1     
     74                 E13/UZF-1                 70      0.00       0.00                  E13/LAK-1                 2     
     75                 E13/UZF-1                 71      0.00       0.00                  E13/LAK-1                 2     
     76                 E13/UZF-1                 72      0.00       0.00                  E13/LAK-1                 2     
     77                 E13/UZF-1                 73      0.00       0.00                  E13/LAK-1                 2     
     78                 E13/UZF-1                 74      0.00       0.00                  E13/LAK-1                 1     
     79                 E13/UZF-1                 75      0.00       0.00                  E13/LAK-1                 1     
     80                 E13/UZF-1                 76      0.00       0.00                  E13/LAK-1                 1     
     81                 E13/UZF-1                 77      0.00       0.00                  E13/LAK-1                 2     
     82                 E13/UZF-1                 78      0.00       0.00                  E13/SFR-1                 9     
     83                 E13/UZF-1                 79      0.00       0.00                  E13/LAK-1                 1     
     84                 E13/UZF-1                 80      0.00       0.00                  E13/SFR-1                 31    
     85                 E13/UZF-1                 81      0.00       0.00                  E13/SFR-1                 30    
     86                 E13/UZF-1                 82      0.00       0.00                  E13/SFR-1                 9     
     87                 E13/UZF-1                 83      0.00       0.00                  E13/SFR-1                 24    
     88                 E13/UZF-1                 84      0.00       0.00                  E13/LAK-1                 1     
     89                 E13/UZF-1                 85      0.00       0.00                  E13/LAK-1                 1     
     90                 E13/UZF-1                 86      6.31       6.31                  E13/SFR-1                 31    
     91                 E13/UZF-1                 87      0.00       0.00                  E13/SFR-1                 30    
     92                 E13/UZF-1                 88      0.00       0.00                  E13/SFR-1                 29    
     93                 E13/UZF-1                 89      0.00       0.00                  E13/SFR-1                 28    
     94                 E13/UZF-1                 90      0.00       0.00                  E13/SFR-1                 27    
     95                 E13/UZF-1                 91      0.00       0.00                  E13/SFR-1                 26    
     96                 E13/UZF-1                 92      0.00       0.00                  E13/SFR-1                 30    
     97                 E13/UZF-1                 93      0.00       0.00                  E13/LAK-1                 2     
     98                 E13/UZF-1                 94      0.00       0.00                  E13/SFR-1                 28    
     99                 E13/UZF-1                 95      0.00       0.00                  E13/SFR-1                 27    
    100                 E13/UZF-1                 96      0.00       0.00                  E13/SFR-1                 26    
    101                 E13/UZF-1                 97      0.00       0.00                  E13/LAK-1                 2     
    102                 E13/UZF-1                 98      0.00       0.00                  E13/LAK-1                 2     
    103                 E13/UZF-1                 99      0.00       0.00                  E13/LAK-1                 2     
    104                 E13/UZF-1                100      0.00       0.00                  E13/LAK-1                 2     
    105                 E13/WEL-1                 1       2.55       2.55                  E13/UZF-1                 38    
    106                 E13/WEL-1                 2       2.55       2.55                  E13/UZF-1                 39    
    107                 E13/WEL-1                 3       2.55       2.55                  E13/UZF-1                 48    
    108                 E13/WEL-1                 4       2.55       2.55                  E13/UZF-1                 49    
    109                 E13/WEL-1                 5       2.55       2.55                  E13/UZF-1                 56    
    110                 E13/WEL-1                 6       2.55       2.55                  E13/UZF-1                 57    
    111                 E13/WEL-1                 7       2.55       2.55                  E13/UZF-1                 64    
    112                 E13/WEL-1                 8       2.55       2.55                  E13/UZF-1                 65    
    113                 E13/WEL-1                 9       2.55       2.55                  E13/UZF-1                 72    
    114                 E13/WEL-1                 10      2.55       2.55                  E13/UZF-1                 73    
 --------------------------------------------------------------------------------------------------------------------------



 SFR PACKAGE (SFR-1) STAGES FOR EACH CONTROL VOLUME   PERIOD     11   STEP       15
 ------------------------------------------------------------------------------------------------------------------------------------------------------
                                                                                                                               STREAMBED    STREAMBED  
 NAME                                       NUMBER   CELLID                  STAGE        DEPTH        WIDTH       GWF HEAD   CONDUCTANCE    GRADIENT  
 ------------------------------------------------------------------------------------------------------------------------------------------------------
 ALLREACHES                                   1      (1,1,1)               1094.3       1.2349       12.000       1019.3       5.40000E-02  1.4116     
 ALLREACHES                                   2      (1,2,2)               1089.3       1.2262       12.000       1019.7       8.40000E-02  1.4087     
 ALLREACHES                                   3      (1,3,3)               1083.6       1.2163       12.000       1019.5       7.20000E-02  1.4054     
 ALLREACHES                                   4      (1,3,4)               1078.6       1.2075       12.000       1019.7       6.66000E-02  1.4025     
 ALLREACHES                                   5      (1,4,5)               1072.8       0.84113      12.000       1019.7       7.80000E-02  1.2804     
 ALLREACHES                                   6      (1,5,6)               1067.3       0.83133      12.000       1019.3       6.00000E-02  1.2771     
 ALLREACHES                                   7      (1,6,6)               1062.6       0.82276      12.000       1018.9       6.00000E-02  1.2743     
 ALLREACHES                                   8      (1,7,6)               1057.9       0.81415      12.000       1018.5       6.00000E-02  1.2714     
 ALLREACHES                                   9      (1,8,6)               1053.2       0.80551      12.000       1018.5       6.00000E-02  1.2685     
 ALLREACHES                                   10     (1,3,5)               1074.6       0.93630      9.6364       1019.4       7.22727E-03  1.4681     
 ALLREACHES                                   11     (1,3,6)               1071.9       0.98022      8.9091       1019.8       6.68182E-03  1.4901     
 ALLREACHES                                   12     (1,3,7)               1069.3       1.0277       8.2182       1019.8       5.54727E-03  1.5139     
 ALLREACHES                                   13     (1,4,8)               1066.5       1.0884       7.4545       1019.0       6.70909E-03  1.5442     
 ALLREACHES                                   14     (1,5,8)               1063.6       1.1639       6.6545       1018.5       4.99091E-03  1.5819     
 ALLREACHES                                   15     (1,6,8)               1061.8       1.2200       6.1455       1019.0       1.84364E-03  1.6100     
 ALLREACHES                                   16     (1,5,10)              1078.4       0.63679      10.000       1018.7       2.50000E-02  1.2123     
 ALLREACHES                                   17     (1,5,9)               1071.5       0.63155      10.000       1019.1       5.00000E-02  1.2105     
 ALLREACHES                                   18     (1,6,8)               1063.8       0.62558      10.000       1019.0       3.50000E-02  1.2085     
 ALLREACHES                                   19     (1,6,8)               1060.0       1.2846       10.000       1019.0       4.00000E-02  1.4282     
 ALLREACHES                                   20     (1,7,7)               1056.9       1.2770       10.000       1018.7       5.00000E-02  1.4257     
 ALLREACHES                                   21     (1,8,7)               1054.1       1.2697       10.000       1018.5       3.50000E-02  1.4232     
 ALLREACHES                                   22     (1,8,6)               1052.1       1.2646       10.000       1018.5       2.50000E-02  1.4215     
 ALLREACHES                                   23     (1,9,6)               1046.6       1.1396       12.000       1018.0       6.00000E-02  1.3799     
 ALLREACHES                                   24     (1,12,7)              1037.7       1.2542       12.000       1019.5       6.00000E-03  1.4181     
 ALLREACHES                                   25     (1,13,7)              1030.2       1.2536       12.000       1023.0       6.60000E-03  1.4179     
 ALLREACHES                                   26     (1,14,9)              1034.8       1.4870       60.000       1026.9       0.60000      1.4957     
 ALLREACHES                                   27     (1,13,8)              1031.5       1.4708       60.000       1024.2       0.60000      1.4903     
 ALLREACHES                                   28     (1,13,7)              1028.1       1.4546       60.000       1023.0       0.60000      1.4849     
 ALLREACHES                                   29     (1,13,6)              1013.9       0.90934      60.000       1017.4       0.60000     -1.1699     
 ALLREACHES                                   30     (1,13,2)              998.30       1.4262       60.000       1003.6       0.60000     -1.7613     
 ALLREACHES                                   31     (1,13,1)              993.34       1.4645       60.000       997.01       0.36000     -1.2221     
 ------------------------------------------------------------------------------------------------------------------------------------------------------



 LAK PACKAGE (LAK-1) STAGES FOR EACH CONTROL VOLUME   PERIOD     11   STEP       15
 --------------------------------------------------------------
   NUMBER      STAGE     SURFACE AREA WETTED AREA     VOLUME   
 --------------------------------------------------------------
     1       1041.3       1.00000E+08  1.01383E+08  4.27549E+09
     2       1001.4       3.00000E+08  3.01457E+08  5.30072E+09
 --------------------------------------------------------------



 HEAD WILL BE SAVED ON UNIT 1026 AT END OF TIME STEP   15, STRESS PERIOD   11


  SFR-1 BUDGET FOR ENTIRE MODEL AT END OF TIME STEP   15, STRESS PERIOD  11
  ------------------------------------------------------------------------------

     CUMULATIVE SFR-1      L**3       RATES FOR THIS TIME STEP      L**3/T
     ------------------                 ------------------------

           IN:                                      IN:
           ---                                      ---
                 GWF =   170015793.5071                   GWF =           6.5961
            RAINFALL =           0.0000              RAINFALL =           0.0000
         EVAPORATION =           0.0000           EVAPORATION =           0.0000
              RUNOFF =           0.0000                RUNOFF =           0.0000
          EXT-INFLOW =  5347980000.0000            EXT-INFLOW =         185.0000
         EXT-OUTFLOW =       1.2518E-02           EXT-OUTFLOW =           0.0000
             STORAGE =           0.0000               STORAGE =           0.0000
            FROM-MVR =  6515624962.7550              FROM-MVR =         227.3790
              TO-MVR =           0.0000                TO-MVR =           0.0000

            TOTAL IN = 12033620756.2747              TOTAL IN =         418.9751

          OUT:                                     OUT:
          ----                                     ----
                 GWF =   343251581.7859                   GWF =          11.8740
            RAINFALL =           0.0000              RAINFALL =           0.0000
         EVAPORATION =           0.0000           EVAPORATION =           0.0000
              RUNOFF =           0.0000                RUNOFF =           0.0000
          EXT-INFLOW =           0.0000            EXT-INFLOW =           0.0000
         EXT-OUTFLOW =  5696447001.7275           EXT-OUTFLOW =         199.0881
             STORAGE =           0.0000               STORAGE =           0.0000
            FROM-MVR =           0.0000              FROM-MVR =           0.0000
              TO-MVR =  5993922172.7612                TO-MVR =         208.0130

           TOTAL OUT = 12033620756.2747             TOTAL OUT =         418.9751

            IN - OUT =           0.0000              IN - OUT =           0.0000

 PERCENT DISCREPANCY =           0.00     PERCENT DISCREPANCY =           0.00



  LAK-1 BUDGET FOR ENTIRE MODEL AT END OF TIME STEP   15, STRESS PERIOD  11
  ------------------------------------------------------------------------------

     CUMULATIVE LAK-1      L**3       RATES FOR THIS TIME STEP      L**3/T
     ------------------                 ------------------------

           IN:                                      IN:
           ---                                      ---
                 GWF =   218079580.6385                   GWF =           8.3400
            RAINFALL =   248608800.0000              RAINFALL =           8.6000
         EVAPORATION =           0.0000           EVAPORATION =           0.0000
              RUNOFF =   130086000.0000                RUNOFF =           4.5000
          EXT-INFLOW =           0.0000            EXT-INFLOW =           0.0000
          WITHDRAWAL =           0.0000            WITHDRAWAL =           0.0000
         EXT-OUTFLOW =       4.9357E-02           EXT-OUTFLOW =       6.2650E-08
             STORAGE =      279894.1678               STORAGE =           0.0000
            CONSTANT =           0.0000              CONSTANT =           0.0000
            FROM-MVR =  5993922172.7612              FROM-MVR =         208.0130
              TO-MVR =           0.0000                TO-MVR =           0.0000

            TOTAL IN =  6590976447.6169              TOTAL IN =         229.4530

          OUT:                                     OUT:
          ----                                     ----
                 GWF =   117853901.2331                   GWF =           3.9112
            RAINFALL =           0.0000              RAINFALL =           0.0000
         EVAPORATION =   124304400.0000           EVAPORATION =           4.3000
              RUNOFF =           0.0000                RUNOFF =           0.0000
          EXT-INFLOW =           0.0000            EXT-INFLOW =           0.0000
          WITHDRAWAL =     3468960.0000            WITHDRAWAL =           0.1200
         EXT-OUTFLOW =           2.1955           EXT-OUTFLOW =           0.0000
             STORAGE =     3202254.7985               STORAGE =       5.6324E-02
            CONSTANT =           0.0000              CONSTANT =           0.0000
            FROM-MVR =           0.0000              FROM-MVR =           0.0000
              TO-MVR =  6342146923.4874                TO-MVR =         221.0655

           TOTAL OUT =  6590976441.7146             TOTAL OUT =         229.4530

            IN - OUT =           5.9023              IN - OUT =      -1.1512E-06

 PERCENT DISCREPANCY =           0.00     PERCENT DISCREPANCY =          -0.00



  UZF-1 BUDGET FOR ENTIRE MODEL AT END OF TIME STEP   15, STRESS PERIOD  11
  ------------------------------------------------------------------------------

     CUMULATIVE UZF-1      L**3       RATES FOR THIS TIME STEP      L**3/T
     ------------------                 ------------------------

           IN:                                      IN:
           ---                                      ---
                 GWF =           0.0000                   GWF =           0.0000
        INFILTRATION =  3002247435.6000          INFILTRATION =           7.6500
             REJ-INF =           0.0000               REJ-INF =           0.0000
                UZET =           0.0000                  UZET =           0.0000
             STORAGE =  1174902052.4971               STORAGE =          66.1107
            FROM-MVR =   201042000.0000              FROM-MVR =          25.5000
      REJ-INF-TO-MVR =           0.0000        REJ-INF-TO-MVR =           0.0000

            TOTAL IN =  4378191488.0971              TOTAL IN =          99.2607

          OUT:                                     OUT:
          ----                                     ----
                 GWF =   565228537.0944                   GWF =          45.3823
        INFILTRATION =           0.0000          INFILTRATION =           0.0000
             REJ-INF =          11.4194               REJ-INF =           0.0000
                UZET =   593418411.6679                  UZET =          21.1622
             STORAGE =  3209733249.0495               STORAGE =          32.6912
            FROM-MVR =           0.0000              FROM-MVR =           0.0000
      REJ-INF-TO-MVR =     9811233.6735        REJ-INF-TO-MVR =       2.5000E-02

           TOTAL OUT =  4378191442.9047             TOTAL OUT =          99.2607

            IN - OUT =          45.1924              IN - OUT =       2.7056E-06

 PERCENT DISCREPANCY =           0.00     PERCENT DISCREPANCY =           0.00



  WATER MOVER BUDGET FOR ENTIRE MODEL AT END OF TIME STEP   15, STRESS PERIOD  11
  ------------------------------------------------------------------------------

     CUMULATIVE WATER MOVER      L**3       RATES FOR THIS TIME STEP      L**3/T
     ------------------                 ------------------------

           IN:                                      IN:
           ---                                      ---
               UZF-1 =   173478039.2676                 UZF-1 =           6.3135
               SFR-1 =  5993922172.7612                 SFR-1 =         208.0130
               LAK-1 =  6342146923.4874                 LAK-1 =         221.0655
               WEL-1 =   201042000.0000                 WEL-1 =          25.5000

            TOTAL IN = 12710589135.5163              TOTAL IN =         460.8920

          OUT:                                     OUT:
          ----                                     ----
               UZF-1 =   201042000.0000                 UZF-1 =          25.5000
               SFR-1 =  6515624962.7550                 SFR-1 =         227.3790
               LAK-1 =  5993922172.7612                 LAK-1 =         208.0130
               WEL-1 =           0.0000                 WEL-1 =           0.0000

           TOTAL OUT = 12710589135.5163             TOTAL OUT =         460.8920

            IN - OUT =       1.9073E-06              IN - OUT =           0.0000

 PERCENT DISCREPANCY =           0.00     PERCENT DISCREPANCY =           0.00



  VOLUME BUDGET FOR ENTIRE MODEL AT END OF TIME STEP   15, STRESS PERIOD  11
  ---------------------------------------------------------------------------------------------------

     CUMULATIVE VOLUME      L**3       RATES FOR THIS TIME STEP      L**3/T          PACKAGE NAME    
     ------------------                 ------------------------                     ----------------

           IN:                                      IN:
           ---                                      ---
              STO-SS =      697931.1266                STO-SS =       3.1625E-02     STORAGE                          
              STO-SY =   222747590.4799                STO-SY =          13.6630     STORAGE                          
                 WEL =           0.0000                   WEL =           0.0000     WEL-1                            
          WEL-TO-MVR =           0.0000            WEL-TO-MVR =           0.0000     WEL-1                            
                 GHB =    20472310.7418                   GHB =           0.6875     GHB_0                            
                 SFR =   343251581.7859                   SFR =          11.8740     SFR-1                            
                 LAK =   117853901.2331                   LAK =           3.9112     LAK-1                            
           UZF-GWRCH =   565228537.0944             UZF-GWRCH =          45.3823     UZF-1                            
             UZF-GWD =           0.0000               UZF-GWD =           0.0000     UZF-1                            
      UZF-GWD TO-MVR =           0.0000        UZF-GWD TO-MVR =           0.0000     UZF-1                            
            UZF-GWET =           0.0000              UZF-GWET =           0.0000     UZF-1                            

            TOTAL IN =  1270251852.4618              TOTAL IN =          75.5496

          OUT:                                     OUT:
          ----                                     ----
              STO-SS =     2692390.8368                STO-SS =           0.1021     STORAGE                          
              STO-SY =   488822688.8456                STO-SY =          27.7922     STORAGE                          
                 WEL =           0.0000                   WEL =           0.0000     WEL-1                            
          WEL-TO-MVR =   201042000.0000            WEL-TO-MVR =          25.5000     WEL-1                            
                 GHB =     9890576.2595                   GHB =           0.3422     GHB_0                            
                 SFR =   170016019.7068                   SFR =           6.5961     SFR-1                            
                 LAK =   218079580.6385                   LAK =           8.3400     LAK-1                            
           UZF-GWRCH =           0.0000             UZF-GWRCH =           0.0000     UZF-1                            
             UZF-GWD =          87.9241               UZF-GWD =           0.0000     UZF-1                            
      UZF-GWD TO-MVR =   163666805.5941        UZF-GWD TO-MVR =           6.2885     UZF-1                            
            UZF-GWET =    16030808.5346              UZF-GWET =           0.5889     UZF-1                            

           TOTAL OUT =  1270240958.3401             TOTAL OUT =          75.5500

            IN - OUT =       10894.1217              IN - OUT =      -4.5907E-04

 PERCENT DISCREPANCY =           0.00     PERCENT DISCREPANCY =          -0.00




         TIME SUMMARY AT END OF TIME STEP   15 IN STRESS PERIOD   11
                    SECONDS     MINUTES      HOURS       DAYS        YEARS
                    -----------------------------------------------------------
   TIME STEP LENGTH 1.75200E+05  2920.0      48.667      2.0278     5.55175E-03
 STRESS PERIOD TIME 2.62800E+06  43800.      730.00      30.417     8.32763E-02
         TOTAL TIME 2.89080E+07 4.81800E+05  8030.0      334.58     0.91604    


end timestep


start timestep kper="12" kstp="1" mode="normal"


 OUTPUT CONTROL FOR STRESS PERIOD 12 IS REPEATED USING SETTINGS FROM A PREVIOUS STRESS PERIOD.


 STRESS PERIOD 12 IS TRANSIENT


 REUSING MVRS FROM LAST STRESS PERIOD
 ----------------------------------
  WEL NO.    LAYER    ROW     COL  
 ----------------------------------
     1         1       4       8   
     2         1       4       9   
     3         1       5       8   
     4         1       5       9   
     5         1       6       6   
     6         1       6       7   
     7         1       7       4   
     8         1       7       5   
     9         1       8       2   
     10        1       8       3   
 ----------------------------------



 REUSING SFRS FROM LAST STRESS PERIOD

 REUSING LAKS FROM LAST STRESS PERIOD

end timestep


start timestep kper="12" kstp="2" mode="normal"


end timestep


start timestep kper="12" kstp="3" mode="normal"


end timestep


start timestep kper="12" kstp="4" mode="normal"


end timestep


start timestep kper="12" kstp="5" mode="normal"


end timestep


start timestep kper="12" kstp="6" mode="normal"


end timestep


start timestep kper="12" kstp="7" mode="normal"


end timestep


start timestep kper="12" kstp="8" mode="normal"


end timestep


start timestep kper="12" kstp="9" mode="normal"


end timestep


start timestep kper="12" kstp="10" mode="normal"


end timestep


start timestep kper="12" kstp="11" mode="normal"


end timestep


start timestep kper="12" kstp="12" mode="normal"


end timestep


start timestep kper="12" kstp="13" mode="normal"


end timestep


start timestep kper="12" kstp="14" mode="normal"


end timestep


start timestep kper="12" kstp="15" mode="normal"

 UBDSV1 SAVING           STO-SS ON UNIT   1025 AT TIME STEP     15, STRESS PERIOD     12
 UBDSV1 SAVING           STO-SY ON UNIT   1025 AT TIME STEP     15, STRESS PERIOD     12
 UBDSV1 SAVING     FLOW-JA-FACE ON UNIT   1025 AT TIME STEP     15, STRESS PERIOD     12
 UBDSV06 SAVING       DATA-SPDIS IN MODEL E13              PACKAGE NPF             CONNECTED TO MODEL E13              PACKAGE NPF              ON UNIT   1025 AT TIME STEP     15, STRESS PERIOD     12
 UBDSV06 SAVING              WEL IN MODEL E13              PACKAGE E13             CONNECTED TO MODEL E13              PACKAGE WEL-1            ON UNIT   1025 AT TIME STEP     15, STRESS PERIOD     12
 UBDSV06 SAVING       WEL-TO-MVR IN MODEL E13              PACKAGE E13             CONNECTED TO MODEL E13              PACKAGE WEL-1            ON UNIT   1025 AT TIME STEP     15, STRESS PERIOD     12
 UBDSV06 SAVING              GHB IN MODEL E13              PACKAGE E13             CONNECTED TO MODEL E13              PACKAGE GHB_0            ON UNIT   1025 AT TIME STEP     15, STRESS PERIOD     12
 UBDSV06 SAVING              SFR IN MODEL E13              PACKAGE E13             CONNECTED TO MODEL E13              PACKAGE SFR-1            ON UNIT   1025 AT TIME STEP     15, STRESS PERIOD     12
 UBDSV06 SAVING              LAK IN MODEL E13              PACKAGE E13             CONNECTED TO MODEL E13              PACKAGE LAK-1            ON UNIT   1025 AT TIME STEP     15, STRESS PERIOD     12
 UBDSV06 SAVING        UZF-GWRCH IN MODEL E13              PACKAGE E13             CONNECTED TO MODEL E13              PACKAGE UZF-1            ON UNIT   1025 AT TIME STEP     15, STRESS PERIOD     12
 UBDSV06 SAVING          UZF-GWD IN MODEL E13              PACKAGE E13             CONNECTED TO MODEL E13              PACKAGE UZF-1            ON UNIT   1025 AT TIME STEP     15, STRESS PERIOD     12
 UBDSV06 SAVING   UZF-GWD TO-MVR IN MODEL E13              PACKAGE E13             CONNECTED TO MODEL E13              PACKAGE UZF-1            ON UNIT   1025 AT TIME STEP     15, STRESS PERIOD     12
 UBDSV06 SAVING         UZF-GWET IN MODEL E13              PACKAGE E13             CONNECTED TO MODEL E13              PACKAGE UZF-1            ON UNIT   1025 AT TIME STEP     15, STRESS PERIOD     12
 UBDSV06 SAVING     FLOW-JA-FACE IN MODEL E13              PACKAGE SFR-1           CONNECTED TO MODEL E13              PACKAGE SFR-1            ON UNIT   1017 AT TIME STEP     15, STRESS PERIOD     12
 UBDSV06 SAVING              GWF IN MODEL E13              PACKAGE SFR-1           CONNECTED TO MODEL E13              PACKAGE E13              ON UNIT   1017 AT TIME STEP     15, STRESS PERIOD     12
 UBDSV06 SAVING         RAINFALL IN MODEL E13              PACKAGE SFR-1           CONNECTED TO MODEL E13              PACKAGE SFR-1            ON UNIT   1017 AT TIME STEP     15, STRESS PERIOD     12
 UBDSV06 SAVING      EVAPORATION IN MODEL E13              PACKAGE SFR-1           CONNECTED TO MODEL E13              PACKAGE SFR-1            ON UNIT   1017 AT TIME STEP     15, STRESS PERIOD     12
 UBDSV06 SAVING           RUNOFF IN MODEL E13              PACKAGE SFR-1           CONNECTED TO MODEL E13              PACKAGE SFR-1            ON UNIT   1017 AT TIME STEP     15, STRESS PERIOD     12
 UBDSV06 SAVING       EXT-INFLOW IN MODEL E13              PACKAGE SFR-1           CONNECTED TO MODEL E13              PACKAGE SFR-1            ON UNIT   1017 AT TIME STEP     15, STRESS PERIOD     12
 UBDSV06 SAVING      EXT-OUTFLOW IN MODEL E13              PACKAGE SFR-1           CONNECTED TO MODEL E13              PACKAGE SFR-1            ON UNIT   1017 AT TIME STEP     15, STRESS PERIOD     12
 UBDSV06 SAVING          STORAGE IN MODEL E13              PACKAGE SFR-1           CONNECTED TO MODEL E13              PACKAGE SFR-1            ON UNIT   1017 AT TIME STEP     15, STRESS PERIOD     12
 UBDSV06 SAVING         FROM-MVR IN MODEL E13              PACKAGE SFR-1           CONNECTED TO MODEL E13              PACKAGE SFR-1            ON UNIT   1017 AT TIME STEP     15, STRESS PERIOD     12
 UBDSV06 SAVING           TO-MVR IN MODEL E13              PACKAGE SFR-1           CONNECTED TO MODEL E13              PACKAGE SFR-1            ON UNIT   1017 AT TIME STEP     15, STRESS PERIOD     12
 UBDSV06 SAVING              GWF IN MODEL E13              PACKAGE LAK-1           CONNECTED TO MODEL E13              PACKAGE E13              ON UNIT   1019 AT TIME STEP     15, STRESS PERIOD     12
 UBDSV06 SAVING         RAINFALL IN MODEL E13              PACKAGE LAK-1           CONNECTED TO MODEL E13              PACKAGE LAK-1            ON UNIT   1019 AT TIME STEP     15, STRESS PERIOD     12
 UBDSV06 SAVING      EVAPORATION IN MODEL E13              PACKAGE LAK-1           CONNECTED TO MODEL E13              PACKAGE LAK-1            ON UNIT   1019 AT TIME STEP     15, STRESS PERIOD     12
 UBDSV06 SAVING           RUNOFF IN MODEL E13              PACKAGE LAK-1           CONNECTED TO MODEL E13              PACKAGE LAK-1            ON UNIT   1019 AT TIME STEP     15, STRESS PERIOD     12
 UBDSV06 SAVING       EXT-INFLOW IN MODEL E13              PACKAGE LAK-1           CONNECTED TO MODEL E13              PACKAGE LAK-1            ON UNIT   1019 AT TIME STEP     15, STRESS PERIOD     12
 UBDSV06 SAVING       WITHDRAWAL IN MODEL E13              PACKAGE LAK-1           CONNECTED TO MODEL E13              PACKAGE LAK-1            ON UNIT   1019 AT TIME STEP     15, STRESS PERIOD     12
 UBDSV06 SAVING      EXT-OUTFLOW IN MODEL E13              PACKAGE LAK-1           CONNECTED TO MODEL E13              PACKAGE LAK-1            ON UNIT   1019 AT TIME STEP     15, STRESS PERIOD     12
 UBDSV06 SAVING          STORAGE IN MODEL E13              PACKAGE LAK-1           CONNECTED TO MODEL E13              PACKAGE LAK-1            ON UNIT   1019 AT TIME STEP     15, STRESS PERIOD     12
 UBDSV06 SAVING         CONSTANT IN MODEL E13              PACKAGE LAK-1           CONNECTED TO MODEL E13              PACKAGE LAK-1            ON UNIT   1019 AT TIME STEP     15, STRESS PERIOD     12
 UBDSV06 SAVING         FROM-MVR IN MODEL E13              PACKAGE LAK-1           CONNECTED TO MODEL E13              PACKAGE LAK-1            ON UNIT   1019 AT TIME STEP     15, STRESS PERIOD     12
 UBDSV06 SAVING           TO-MVR IN MODEL E13              PACKAGE LAK-1           CONNECTED TO MODEL E13              PACKAGE LAK-1            ON UNIT   1019 AT TIME STEP     15, STRESS PERIOD     12
 UBDSV06 SAVING     FLOW-JA-FACE IN MODEL E13              PACKAGE UZF-1           CONNECTED TO MODEL E13              PACKAGE UZF-1            ON UNIT   1021 AT TIME STEP     15, STRESS PERIOD     12
 UBDSV06 SAVING              GWF IN MODEL E13              PACKAGE UZF-1           CONNECTED TO MODEL E13              PACKAGE E13              ON UNIT   1021 AT TIME STEP     15, STRESS PERIOD     12
 UBDSV06 SAVING     INFILTRATION IN MODEL E13              PACKAGE UZF-1           CONNECTED TO MODEL E13              PACKAGE UZF-1            ON UNIT   1021 AT TIME STEP     15, STRESS PERIOD     12
 UBDSV06 SAVING          REJ-INF IN MODEL E13              PACKAGE UZF-1           CONNECTED TO MODEL E13              PACKAGE UZF-1            ON UNIT   1021 AT TIME STEP     15, STRESS PERIOD     12
 UBDSV06 SAVING             UZET IN MODEL E13              PACKAGE UZF-1           CONNECTED TO MODEL E13              PACKAGE UZF-1            ON UNIT   1021 AT TIME STEP     15, STRESS PERIOD     12
 UBDSV06 SAVING          STORAGE IN MODEL E13              PACKAGE UZF-1           CONNECTED TO MODEL E13              PACKAGE UZF-1            ON UNIT   1021 AT TIME STEP     15, STRESS PERIOD     12
 UBDSV06 SAVING         FROM-MVR IN MODEL E13              PACKAGE UZF-1           CONNECTED TO MODEL E13              PACKAGE UZF-1            ON UNIT   1021 AT TIME STEP     15, STRESS PERIOD     12
 UBDSV06 SAVING   REJ-INF-TO-MVR IN MODEL E13              PACKAGE UZF-1           CONNECTED TO MODEL E13              PACKAGE UZF-1            ON UNIT   1021 AT TIME STEP     15, STRESS PERIOD     12
 UBDSV06 SAVING       MOVER-FLOW IN MODEL E13              PACKAGE UZF-1           CONNECTED TO MODEL E13              PACKAGE UZF-1            ON UNIT   1023 AT TIME STEP     15, STRESS PERIOD     12
 UBDSV06 SAVING       MOVER-FLOW IN MODEL E13              PACKAGE UZF-1           CONNECTED TO MODEL E13              PACKAGE SFR-1            ON UNIT   1023 AT TIME STEP     15, STRESS PERIOD     12
 UBDSV06 SAVING       MOVER-FLOW IN MODEL E13              PACKAGE UZF-1           CONNECTED TO MODEL E13              PACKAGE LAK-1            ON UNIT   1023 AT TIME STEP     15, STRESS PERIOD     12
 UBDSV06 SAVING       MOVER-FLOW IN MODEL E13              PACKAGE UZF-1           CONNECTED TO MODEL E13              PACKAGE WEL-1            ON UNIT   1023 AT TIME STEP     15, STRESS PERIOD     12
 UBDSV06 SAVING       MOVER-FLOW IN MODEL E13              PACKAGE SFR-1           CONNECTED TO MODEL E13              PACKAGE UZF-1            ON UNIT   1023 AT TIME STEP     15, STRESS PERIOD     12
 UBDSV06 SAVING       MOVER-FLOW IN MODEL E13              PACKAGE SFR-1           CONNECTED TO MODEL E13              PACKAGE SFR-1            ON UNIT   1023 AT TIME STEP     15, STRESS PERIOD     12
 UBDSV06 SAVING       MOVER-FLOW IN MODEL E13              PACKAGE SFR-1           CONNECTED TO MODEL E13              PACKAGE LAK-1            ON UNIT   1023 AT TIME STEP     15, STRESS PERIOD     12
 UBDSV06 SAVING       MOVER-FLOW IN MODEL E13              PACKAGE SFR-1           CONNECTED TO MODEL E13              PACKAGE WEL-1            ON UNIT   1023 AT TIME STEP     15, STRESS PERIOD     12
 UBDSV06 SAVING       MOVER-FLOW IN MODEL E13              PACKAGE LAK-1           CONNECTED TO MODEL E13              PACKAGE UZF-1            ON UNIT   1023 AT TIME STEP     15, STRESS PERIOD     12
 UBDSV06 SAVING       MOVER-FLOW IN MODEL E13              PACKAGE LAK-1           CONNECTED TO MODEL E13              PACKAGE SFR-1            ON UNIT   1023 AT TIME STEP     15, STRESS PERIOD     12
 UBDSV06 SAVING       MOVER-FLOW IN MODEL E13              PACKAGE LAK-1           CONNECTED TO MODEL E13              PACKAGE LAK-1            ON UNIT   1023 AT TIME STEP     15, STRESS PERIOD     12
 UBDSV06 SAVING       MOVER-FLOW IN MODEL E13              PACKAGE LAK-1           CONNECTED TO MODEL E13              PACKAGE WEL-1            ON UNIT   1023 AT TIME STEP     15, STRESS PERIOD     12
 UBDSV06 SAVING       MOVER-FLOW IN MODEL E13              PACKAGE WEL-1           CONNECTED TO MODEL E13              PACKAGE UZF-1            ON UNIT   1023 AT TIME STEP     15, STRESS PERIOD     12
 UBDSV06 SAVING       MOVER-FLOW IN MODEL E13              PACKAGE WEL-1           CONNECTED TO MODEL E13              PACKAGE SFR-1            ON UNIT   1023 AT TIME STEP     15, STRESS PERIOD     12
 UBDSV06 SAVING       MOVER-FLOW IN MODEL E13              PACKAGE WEL-1           CONNECTED TO MODEL E13              PACKAGE LAK-1            ON UNIT   1023 AT TIME STEP     15, STRESS PERIOD     12
 UBDSV06 SAVING       MOVER-FLOW IN MODEL E13              PACKAGE WEL-1           CONNECTED TO MODEL E13              PACKAGE WEL-1            ON UNIT   1023 AT TIME STEP     15, STRESS PERIOD     12

 WEL PACKAGE (WEL-1) FLOW RATES   PERIOD     12   STEP       15
 -----------------------------------------------
   NUMBER   CELLID                    RATE      
 -----------------------------------------------
     1      (1,6,4)               0.0000000     
     2      (1,6,5)               0.0000000     
     3      (1,7,4)               0.0000000     
     4      (1,7,5)               0.0000000     
     5      (1,8,4)               0.0000000     
     6      (1,8,5)               0.0000000     
     7      (1,9,4)               0.0000000     
     8      (1,9,5)               0.0000000     
     9      (1,10,4)              0.0000000     
     10     (1,10,5)              0.0000000     
 -----------------------------------------------




 WEL PACKAGE (WEL-1) FLOW RATES TO-MVR   PERIOD     12   STEP       15
 -----------------------------------------------
   NUMBER   CELLID                    RATE      
 -----------------------------------------------
     1      (1,6,4)               0.0000000     
     2      (1,6,5)               0.0000000     
     3      (1,7,4)               0.0000000     
     4      (1,7,5)               0.0000000     
     5      (1,8,4)               0.0000000     
     6      (1,8,5)               0.0000000     
     7      (1,9,4)               0.0000000     
     8      (1,9,5)               0.0000000     
     9      (1,10,4)              0.0000000     
     10     (1,10,5)              0.0000000     
 -----------------------------------------------




 SFR PACKAGE (SFR-1) FLOW RATES   PERIOD     12   STEP       15
 ----------------------------------------------------------------------------------------
   NUMBER   CELLID                    RATE       NAME                                    
 ----------------------------------------------------------------------------------------
     1      (1,1,1)               0.22868377     ALLREACHES                              
     2      (1,2,2)               0.35499870     ALLREACHES                              
     3      (1,3,3)               0.30357347     ALLREACHES                              
     4      (1,3,4)               0.28021936     ALLREACHES                              
     5      (1,4,5)               0.29960805     ALLREACHES                              
     6      (1,5,6)               0.22987955     ALLREACHES                              
     7      (1,6,6)               0.22936563     ALLREACHES                              
     8      (1,7,6)               0.22884928     ALLREACHES                              
     9      (1,8,6)               0.22833044     ALLREACHES                              
     10     (1,3,5)               2.12214188E-02 ALLREACHES                              
     11     (1,3,6)               1.99133007E-02 ALLREACHES                              
     12     (1,3,7)               1.67956407E-02 ALLREACHES                              
     13     (1,4,8)               2.07205450E-02 ALLREACHES                              
     14     (1,5,8)               1.57905563E-02 ALLREACHES                              
     15     (1,6,8)               5.93648362E-03 ALLREACHES                              
     16     (1,5,10)              9.09197693E-02 ALLREACHES                              
     17     (1,5,9)               0.18157734     ALLREACHES                              
     18     (1,6,8)               0.12689514     ALLREACHES                              
     19     (1,6,8)               0.17138468     ALLREACHES                              
     20     (1,7,7)               0.21384773     ALLREACHES                              
     21     (1,8,7)               0.14943953     ALLREACHES                              
     22     (1,8,6)               0.10661428     ALLREACHES                              
     23     (1,9,6)               0.24837387     ALLREACHES                              
     24     (1,12,7)              2.55308846E-02 ALLREACHES                              
     25     (1,13,7)              2.80799116E-02 ALLREACHES                              
     26     (1,14,9)              2.6922030      ALLREACHES                              
     27     (1,13,8)              2.6824902      ALLREACHES                              
     28     (1,13,7)              2.6727412      ALLREACHES                              
     29     (1,13,6)             -2.0669123      ALLREACHES                              
     30     (1,13,2)             -3.1832406      ALLREACHES                              
     31     (1,13,1)             -1.3198710      ALLREACHES                              
 ----------------------------------------------------------------------------------------




 LAK PACKAGE (LAK-1) FLOW RATES   PERIOD     12   STEP       15
 -----------------------------------------------
   NUMBER   CELLID                    RATE      
 -----------------------------------------------
     1      (1,9,7)               8.33149371E-03
     2      (1,10,6)              1.07390739E-02
     3      (2,10,7)              0.96792839    
     4      (1,9,8)               5.89538126E-03
     5      (1,10,9)              1.05477389E-04
     6      (2,10,8)              0.94210704    
     7      (1,11,6)              1.15452853E-02
     8      (1,12,7)              1.07606219E-02
     9      (2,11,7)              0.96194530    
     10     (1,11,9)              2.62937774E-03
     11     (1,12,8)              1.04816651E-02
     12     (2,11,8)              0.93594465    
     13     (1,10,3)             -9.82692278E-04
     14     (1,11,2)             -1.18178112E-03
     15     (2,11,3)             -0.67329552    
     16     (1,10,4)             -1.03396078E-03
     17     (2,11,4)             -0.69103639    
     18     (1,10,5)             -2.78477072E-03
     19     (1,11,6)             -4.21909567E-03
     20     (2,11,5)             -0.71617930    
     21     (1,12,2)             -4.22286549E-03
     22     (2,12,3)             -0.64920453    
     23     (2,12,4)             -0.68231299    
     24     (1,12,6)             -5.85538297E-03
     25     (2,12,5)             -0.71577710    
     26     (1,13,2)             -1.08410587E-03
     27     (2,13,3)             -0.64425588    
     28     (2,13,4)             -0.68669511    
     29     (1,13,6)             -6.42408548E-03
     30     (2,13,5)             -0.72352905    
     31     (1,14,2)             -4.36236884E-03
     32     (1,15,3)              0.0000000     
     33     (2,14,3)             -0.66723899    
     34     (1,15,4)              0.0000000     
     35     (2,14,4)             -0.70281045    
     36     (1,14,6)             -4.00766168E-03
     37     (1,15,5)              0.0000000     
     38     (2,14,5)             -0.73592073    
 -----------------------------------------------




 SFR-1 PACKAGE - SUMMARY OF FLOWS FOR EACH CONTROL VOLUME   PERIOD     12   STEP       15
 --------------------------------------------------------------------------------------------------------------------------------------------------------------------------------------------------------
                                                                                                                                                                                               PERCENT   
   NUMBER   CELLID                  INFLOW      OUTFLOW        GWF        RAINFALL   EVAPORATION     RUNOFF     EXT INFLOW  EXT OUTFLOW    STORAGE      FROM MVR      TO MVR      IN - OUT    DIFFERENCE 
 --------------------------------------------------------------------------------------------------------------------------------------------------------------------------------------------------------
     1      (1,1,1)               0.0000      -24.771      -0.22868      0.0000       0.0000       0.0000       25.000       0.0000       0.0000       0.0000       0.0000       0.0000       0.0000     
     2      (1,2,2)               24.771      -24.416      -0.35500      0.0000       0.0000       0.0000       0.0000       0.0000       0.0000       0.0000       0.0000       0.0000       0.0000     
     3      (1,3,3)               24.416      -24.113      -0.30357      0.0000       0.0000       0.0000       0.0000       0.0000       0.0000       0.0000       0.0000       0.0000       0.0000     
     4      (1,3,4)               24.113      -23.833      -0.28022      0.0000       0.0000       0.0000       0.0000       0.0000       0.0000       0.0000       0.0000       0.0000       0.0000     
     5      (1,4,5)               13.833      -13.533      -0.29961      0.0000       0.0000       0.0000       0.0000       0.0000       0.0000       0.0000       0.0000       0.0000       0.0000     
     6      (1,5,6)               13.533      -13.303      -0.22988      0.0000       0.0000       0.0000       0.0000       0.0000       0.0000       0.0000       0.0000       0.0000       0.0000     
     7      (1,6,6)               13.303      -13.074      -0.22937      0.0000       0.0000       0.0000       0.0000       0.0000       0.0000       0.0000       0.0000       0.0000       0.0000     
     8      (1,7,6)               13.074      -12.845      -0.22885      0.0000       0.0000       0.0000       0.0000       0.0000       0.0000       0.0000       0.0000       0.0000       0.0000     
     9      (1,8,6)               12.845      -12.616      -0.22833      0.0000       0.0000       0.0000       0.0000       0.0000       0.0000       0.0000       0.0000       0.0000       0.0000     
     10     (1,3,5)               10.000      -9.9788      -2.12214E-02  0.0000       0.0000       0.0000       0.0000       0.0000       0.0000       0.0000       0.0000       0.0000       0.0000     
     11     (1,3,6)               9.9788      -9.9589      -1.99133E-02  0.0000       0.0000       0.0000       0.0000       0.0000       0.0000       0.0000       0.0000       0.0000       0.0000     
     12     (1,3,7)               9.9589      -9.9421      -1.67956E-02  0.0000       0.0000       0.0000       0.0000       0.0000       0.0000       0.0000       0.0000       0.0000       0.0000     
     13     (1,4,8)               9.9421      -9.9213      -2.07205E-02  0.0000       0.0000       0.0000       0.0000       0.0000       0.0000       0.0000       0.0000       0.0000       0.0000     
     14     (1,5,8)               9.9213      -9.9056      -1.57906E-02  0.0000       0.0000       0.0000       0.0000       0.0000       0.0000       0.0000       0.0000       0.0000       0.0000     
     15     (1,6,8)               9.9056      -9.8996      -5.93648E-03  0.0000       0.0000       0.0000       0.0000       0.0000       0.0000       0.0000       0.0000       0.0000       0.0000     
     16     (1,5,10)              0.0000      -9.9091      -9.09198E-02  0.0000       0.0000       0.0000       10.000       0.0000       0.0000       0.0000       0.0000       0.0000       0.0000     
     17     (1,5,9)               9.9091      -9.7275      -0.18158      0.0000       0.0000       0.0000       0.0000       0.0000       0.0000       0.0000       0.0000       0.0000       0.0000     
     18     (1,6,8)               9.7275      -9.6006      -0.12690      0.0000       0.0000       0.0000       0.0000       0.0000       0.0000       0.0000       0.0000       0.0000       0.0000     
     19     (1,6,8)               19.500      -19.329      -0.17138      0.0000       0.0000       0.0000       0.0000       0.0000       0.0000       0.0000       0.0000       0.0000       0.0000     
     20     (1,7,7)               19.329      -19.115      -0.21385      0.0000       0.0000       0.0000       0.0000       0.0000       0.0000       0.0000       0.0000       0.0000       0.0000     
     21     (1,8,7)               19.115      -18.966      -0.14944      0.0000       0.0000       0.0000       0.0000       0.0000       0.0000       0.0000       0.0000       0.0000       0.0000     
     22     (1,8,6)               18.966      -18.859      -0.10661      0.0000       0.0000       0.0000       0.0000       0.0000       0.0000       0.0000       0.0000       0.0000       0.0000     
     23     (1,9,6)               31.475       0.0000      -0.24837      0.0000       0.0000       0.0000       0.0000       0.0000       0.0000       0.0000      -31.227       0.0000       0.0000     
     24     (1,12,7)              0.0000      -32.797      -2.55309E-02  0.0000       0.0000       0.0000       0.0000       0.0000       0.0000       32.822       0.0000       0.0000       0.0000     
     25     (1,13,7)              32.797      -32.769      -2.80799E-02  0.0000       0.0000       0.0000       0.0000       0.0000       0.0000       0.0000       0.0000       0.0000       0.0000     
     26     (1,14,9)              0.0000      -147.31      -2.6922       0.0000       0.0000       0.0000       150.00       0.0000       0.0000       0.0000       0.0000       0.0000       0.0000     
     27     (1,13,8)              147.31      -144.63      -2.6825       0.0000       0.0000       0.0000       0.0000       0.0000       0.0000       0.0000       0.0000       0.0000       0.0000     
     28     (1,13,7)              144.63      -141.95      -2.6727       0.0000       0.0000       0.0000       0.0000       0.0000       0.0000       0.0000       0.0000       0.0000       0.0000     
     29     (1,13,6)              174.72       0.0000       2.0669       0.0000       0.0000       0.0000       0.0000      -1.39641E-07  0.0000       0.0000      -176.79       0.0000       0.0000     
     30     (1,13,2)              0.0000      -191.48       3.1832       0.0000       0.0000       0.0000       0.0000       0.0000       0.0000       188.30       0.0000       0.0000       0.0000     
     31     (1,13,1)              191.48       0.0000       1.3199       0.0000       0.0000       0.0000       0.0000      -199.13       0.0000       6.3249       0.0000       0.0000       0.0000     
 --------------------------------------------------------------------------------------------------------------------------------------------------------------------------------------------------------



 LAK-1 PACKAGE - SUMMARY OF FLOWS FOR EACH CONTROL VOLUME   PERIOD     12   STEP       15
 -----------------------------------------------------------------------------------------------------------------------------------------------------------------------------------
                                                                                                                                                                          PERCENT   
   NUMBER       GWF        RAINFALL   EVAPORATION     RUNOFF     EXT INFLOW   WITHDRAWAL  EXT OUTFLOW    STORAGE      CONSTANT     FROM MVR      TO MVR      IN - OUT    DIFFERENCE 
 -----------------------------------------------------------------------------------------------------------------------------------------------------------------------------------
     1      -3.8684       5.0000      -1.0000       1.5000       0.0000       0.0000       0.0000      -3.63339E-02  0.0000       31.227      -32.822       3.60279E-07  9.54963E-07
     2       8.3244       3.6000      -3.3000       3.0000       0.0000      -0.12000      3.90768E-07  4.84681E-03  0.0000       176.79      -188.30      -6.06019E-06 -3.16100E-06
 -----------------------------------------------------------------------------------------------------------------------------------------------------------------------------------



 WATER MOVER PACKAGE (MVR) FLOW RATES   PERIOD     12   STEP       15
 --------------------------------------------------------------------------------------------------------------------------
                                               PROVIDER  AVAILABLE   PROVIDED                                     RECEIVER 
   NUMBER           PROVIDER LOCATION             ID        RATE       RATE            RECEIVER LOCATION             ID    
 --------------------------------------------------------------------------------------------------------------------------
     1                  E13/SFR-1                 23      31.2       31.2                  E13/LAK-1                 1     
     2                  E13/LAK-1                 1       32.8       32.8                  E13/SFR-1                 24    
     3                  E13/SFR-1                 29      177.       177.                  E13/LAK-1                 2     
     4                  E13/LAK-1                 2       188.       188.                  E13/SFR-1                 30    
     5                  E13/UZF-1                 1       0.00       0.00                  E13/SFR-1                 1     
     6                  E13/UZF-1                 2       0.00       0.00                  E13/SFR-1                 2     
     7                  E13/UZF-1                 3       0.00       0.00                  E13/SFR-1                 2     
     8                  E13/UZF-1                 4       0.00       0.00                  E13/SFR-1                 2     
     9                  E13/UZF-1                 5       0.00       0.00                  E13/SFR-1                 3     
     10                 E13/UZF-1                 6       0.00       0.00                  E13/SFR-1                 11    
     11                 E13/UZF-1                 7       0.00       0.00                  E13/SFR-1                 12    
     12                 E13/UZF-1                 8       0.00       0.00                  E13/SFR-1                 12    
     13                 E13/UZF-1                 9       0.00       0.00                  E13/SFR-1                 2     
     14                 E13/UZF-1                 10      0.00       0.00                  E13/SFR-1                 3     
     15                 E13/UZF-1                 11      0.00       0.00                  E13/SFR-1                 4     
     16                 E13/UZF-1                 12      0.00       0.00                  E13/SFR-1                 10    
     17                 E13/UZF-1                 13      0.00       0.00                  E13/SFR-1                 11    
     18                 E13/UZF-1                 14      0.00       0.00                  E13/SFR-1                 12    
     19                 E13/UZF-1                 15      0.00       0.00                  E13/SFR-1                 13    
     20                 E13/UZF-1                 16      0.00       0.00                  E13/LAK-1                 2     
     21                 E13/UZF-1                 17      0.00       0.00                  E13/LAK-1                 2     
     22                 E13/UZF-1                 18      0.00       0.00                  E13/SFR-1                 3     
     23                 E13/UZF-1                 19      0.00       0.00                  E13/SFR-1                 4     
     24                 E13/UZF-1                 20      0.00       0.00                  E13/SFR-1                 5     
     25                 E13/UZF-1                 21      0.00       0.00                  E13/SFR-1                 6     
     26                 E13/UZF-1                 22      0.00       0.00                  E13/SFR-1                 6     
     27                 E13/UZF-1                 23      0.00       0.00                  E13/SFR-1                 13    
     28                 E13/UZF-1                 24      0.00       0.00                  E13/SFR-1                 17    
     29                 E13/UZF-1                 25      0.00       0.00                  E13/LAK-1                 2     
     30                 E13/UZF-1                 26      0.00       0.00                  E13/LAK-1                 2     
     31                 E13/UZF-1                 27      0.00       0.00                  E13/LAK-1                 2     
     32                 E13/UZF-1                 28      0.00       0.00                  E13/LAK-1                 2     
     33                 E13/UZF-1                 29      0.00       0.00                  E13/SFR-1                 5     
     34                 E13/UZF-1                 30      0.00       0.00                  E13/SFR-1                 6     
     35                 E13/UZF-1                 31      0.00       0.00                  E13/SFR-1                 6     
     36                 E13/UZF-1                 32      0.00       0.00                  E13/SFR-1                 14    
     37                 E13/UZF-1                 33      0.00       0.00                  E13/SFR-1                 17    
     38                 E13/UZF-1                 34      0.00       0.00                  E13/SFR-1                 16    
     39                 E13/UZF-1                 35      0.00       0.00                  E13/LAK-1                 2     
     40                 E13/UZF-1                 36      0.00       0.00                  E13/LAK-1                 2     
     41                 E13/UZF-1                 37      0.00       0.00                  E13/LAK-1                 2     
     42                 E13/UZF-1                 38      0.00       0.00                  E13/LAK-1                 2     
     43                 E13/UZF-1                 39      0.00       0.00                  E13/LAK-1                 2     
     44                 E13/UZF-1                 40      0.00       0.00                  E13/SFR-1                 7     
     45                 E13/UZF-1                 41      0.00       0.00                  E13/SFR-1                 7     
     46                 E13/UZF-1                 42      0.00       0.00                  E13/SFR-1                 19    
     47                 E13/UZF-1                 43      0.00       0.00                  E13/SFR-1                 17    
     48                 E13/UZF-1                 44      0.00       0.00                  E13/SFR-1                 16    
     49                 E13/UZF-1                 45      0.00       0.00                  E13/LAK-1                 2     
     50                 E13/UZF-1                 46      0.00       0.00                  E13/LAK-1                 2     
     51                 E13/UZF-1                 47      0.00       0.00                  E13/LAK-1                 2     
     52                 E13/UZF-1                 48      0.00       0.00                  E13/LAK-1                 2     
     53                 E13/UZF-1                 49      0.00       0.00                  E13/LAK-1                 2     
     54                 E13/UZF-1                 50      0.00       0.00                  E13/SFR-1                 8     
     55                 E13/UZF-1                 51      0.00       0.00                  E13/SFR-1                 20    
     56                 E13/UZF-1                 52      0.00       0.00                  E13/SFR-1                 20    
     57                 E13/UZF-1                 53      0.00       0.00                  E13/SFR-1                 20    
     58                 E13/UZF-1                 54      0.00       0.00                  E13/LAK-1                 2     
     59                 E13/UZF-1                 55      0.00       0.00                  E13/LAK-1                 2     
     60                 E13/UZF-1                 56      0.00       0.00                  E13/LAK-1                 2     
     61                 E13/UZF-1                 57      0.00       0.00                  E13/LAK-1                 2     
     62                 E13/UZF-1                 58      0.00       0.00                  E13/SFR-1                 9     
     63                 E13/UZF-1                 59      0.00       0.00                  E13/SFR-1                 21    
     64                 E13/UZF-1                 60      0.00       0.00                  E13/SFR-1                 21    
     65                 E13/UZF-1                 61      0.00       0.00                  E13/SFR-1                 21    
     66                 E13/UZF-1                 62      0.00       0.00                  E13/LAK-1                 2     
     67                 E13/UZF-1                 63      0.00       0.00                  E13/LAK-1                 2     
     68                 E13/UZF-1                 64      0.00       0.00                  E13/LAK-1                 2     
     69                 E13/UZF-1                 65      0.00       0.00                  E13/LAK-1                 2     
     70                 E13/UZF-1                 66      0.00       0.00                  E13/SFR-1                 23    
     71                 E13/UZF-1                 67      0.00       0.00                  E13/LAK-1                 1     
     72                 E13/UZF-1                 68      0.00       0.00                  E13/LAK-1                 1     
     73                 E13/UZF-1                 69      0.00       0.00                  E13/LAK-1                 1     
     74                 E13/UZF-1                 70      0.00       0.00                  E13/LAK-1                 2     
     75                 E13/UZF-1                 71      0.00       0.00                  E13/LAK-1                 2     
     76                 E13/UZF-1                 72      0.00       0.00                  E13/LAK-1                 2     
     77                 E13/UZF-1                 73      0.00       0.00                  E13/LAK-1                 2     
     78                 E13/UZF-1                 74      0.00       0.00                  E13/LAK-1                 1     
     79                 E13/UZF-1                 75      0.00       0.00                  E13/LAK-1                 1     
     80                 E13/UZF-1                 76      0.00       0.00                  E13/LAK-1                 1     
     81                 E13/UZF-1                 77      0.00       0.00                  E13/LAK-1                 2     
     82                 E13/UZF-1                 78      0.00       0.00                  E13/SFR-1                 9     
     83                 E13/UZF-1                 79      0.00       0.00                  E13/LAK-1                 1     
     84                 E13/UZF-1                 80      0.00       0.00                  E13/SFR-1                 31    
     85                 E13/UZF-1                 81      0.00       0.00                  E13/SFR-1                 30    
     86                 E13/UZF-1                 82      0.00       0.00                  E13/SFR-1                 9     
     87                 E13/UZF-1                 83      0.00       0.00                  E13/SFR-1                 24    
     88                 E13/UZF-1                 84      0.00       0.00                  E13/LAK-1                 1     
     89                 E13/UZF-1                 85      0.00       0.00                  E13/LAK-1                 1     
     90                 E13/UZF-1                 86      6.32       6.32                  E13/SFR-1                 31    
     91                 E13/UZF-1                 87      0.00       0.00                  E13/SFR-1                 30    
     92                 E13/UZF-1                 88      0.00       0.00                  E13/SFR-1                 29    
     93                 E13/UZF-1                 89      0.00       0.00                  E13/SFR-1                 28    
     94                 E13/UZF-1                 90      0.00       0.00                  E13/SFR-1                 27    
     95                 E13/UZF-1                 91      0.00       0.00                  E13/SFR-1                 26    
     96                 E13/UZF-1                 92      0.00       0.00                  E13/SFR-1                 30    
     97                 E13/UZF-1                 93      0.00       0.00                  E13/LAK-1                 2     
     98                 E13/UZF-1                 94      0.00       0.00                  E13/SFR-1                 28    
     99                 E13/UZF-1                 95      0.00       0.00                  E13/SFR-1                 27    
    100                 E13/UZF-1                 96      0.00       0.00                  E13/SFR-1                 26    
    101                 E13/UZF-1                 97      0.00       0.00                  E13/LAK-1                 2     
    102                 E13/UZF-1                 98      0.00       0.00                  E13/LAK-1                 2     
    103                 E13/UZF-1                 99      0.00       0.00                  E13/LAK-1                 2     
    104                 E13/UZF-1                100      0.00       0.00                  E13/LAK-1                 2     
    105                 E13/WEL-1                 1       0.00       0.00                  E13/UZF-1                 38    
    106                 E13/WEL-1                 2       0.00       0.00                  E13/UZF-1                 39    
    107                 E13/WEL-1                 3       0.00       0.00                  E13/UZF-1                 48    
    108                 E13/WEL-1                 4       0.00       0.00                  E13/UZF-1                 49    
    109                 E13/WEL-1                 5       0.00       0.00                  E13/UZF-1                 56    
    110                 E13/WEL-1                 6       0.00       0.00                  E13/UZF-1                 57    
    111                 E13/WEL-1                 7       0.00       0.00                  E13/UZF-1                 64    
    112                 E13/WEL-1                 8       0.00       0.00                  E13/UZF-1                 65    
    113                 E13/WEL-1                 9       0.00       0.00                  E13/UZF-1                 72    
    114                 E13/WEL-1                 10      0.00       0.00                  E13/UZF-1                 73    
 --------------------------------------------------------------------------------------------------------------------------



 SFR PACKAGE (SFR-1) STAGES FOR EACH CONTROL VOLUME   PERIOD     12   STEP       15
 ------------------------------------------------------------------------------------------------------------------------------------------------------
                                                                                                                               STREAMBED    STREAMBED  
 NAME                                       NUMBER   CELLID                  STAGE        DEPTH        WIDTH       GWF HEAD   CONDUCTANCE    GRADIENT  
 ------------------------------------------------------------------------------------------------------------------------------------------------------
 ALLREACHES                                   1      (1,1,1)               1094.3       1.2349       12.000       1019.4       5.40000E-02  1.4116     
 ALLREACHES                                   2      (1,2,2)               1089.3       1.2262       12.000       1019.8       8.40000E-02  1.4087     
 ALLREACHES                                   3      (1,3,3)               1083.6       1.2163       12.000       1019.7       7.20000E-02  1.4054     
 ALLREACHES                                   4      (1,3,4)               1078.6       1.2075       12.000       1019.8       6.66000E-02  1.4025     
 ALLREACHES                                   5      (1,4,5)               1072.8       0.84113      12.000       1019.9       7.80000E-02  1.2804     
 ALLREACHES                                   6      (1,5,6)               1067.3       0.83133      12.000       1019.4       6.00000E-02  1.2771     
 ALLREACHES                                   7      (1,6,6)               1062.6       0.82276      12.000       1019.0       6.00000E-02  1.2743     
 ALLREACHES                                   8      (1,7,6)               1057.9       0.81415      12.000       1018.5       6.00000E-02  1.2714     
 ALLREACHES                                   9      (1,8,6)               1053.2       0.80551      12.000       1018.5       6.00000E-02  1.2685     
 ALLREACHES                                   10     (1,3,5)               1074.6       0.93630      9.6364       1019.4       7.22727E-03  1.4681     
 ALLREACHES                                   11     (1,3,6)               1071.9       0.98022      8.9091       1019.8       6.68182E-03  1.4901     
 ALLREACHES                                   12     (1,3,7)               1069.3       1.0277       8.2182       1019.9       5.54727E-03  1.5139     
 ALLREACHES                                   13     (1,4,8)               1066.5       1.0884       7.4545       1019.2       6.70909E-03  1.5442     
 ALLREACHES                                   14     (1,5,8)               1063.6       1.1639       6.6545       1018.5       4.99091E-03  1.5819     
 ALLREACHES                                   15     (1,6,8)               1061.8       1.2200       6.1455       1019.1       1.84364E-03  1.6100     
 ALLREACHES                                   16     (1,5,10)              1078.4       0.63679      10.000       1018.9       2.50000E-02  1.2123     
 ALLREACHES                                   17     (1,5,9)               1071.5       0.63155      10.000       1019.3       5.00000E-02  1.2105     
 ALLREACHES                                   18     (1,6,8)               1063.8       0.62558      10.000       1019.1       3.50000E-02  1.2085     
 ALLREACHES                                   19     (1,6,8)               1060.0       1.2846       10.000       1019.1       4.00000E-02  1.4282     
 ALLREACHES                                   20     (1,7,7)               1056.9       1.2770       10.000       1018.8       5.00000E-02  1.4257     
 ALLREACHES                                   21     (1,8,7)               1054.1       1.2697       10.000       1018.6       3.50000E-02  1.4232     
 ALLREACHES                                   22     (1,8,6)               1052.1       1.2646       10.000       1018.5       2.50000E-02  1.4215     
 ALLREACHES                                   23     (1,9,6)               1046.6       1.1396       12.000       1018.1       6.00000E-02  1.3799     
 ALLREACHES                                   24     (1,12,7)              1037.7       1.2551       12.000       1019.7       6.00000E-03  1.4184     
 ALLREACHES                                   25     (1,13,7)              1030.2       1.2545       12.000       1023.0       6.60000E-03  1.4182     
 ALLREACHES                                   26     (1,14,9)              1034.8       1.4870       60.000       1027.1       0.60000      1.4957     
 ALLREACHES                                   27     (1,13,8)              1031.5       1.4708       60.000       1024.4       0.60000      1.4903     
 ALLREACHES                                   28     (1,13,7)              1028.1       1.4546       60.000       1023.0       0.60000      1.4849     
 ALLREACHES                                   29     (1,13,6)              1013.9       0.90941      60.000       1017.4       0.60000     -1.1483     
 ALLREACHES                                   30     (1,13,2)              998.30       1.4263       60.000       1003.6       0.60000     -1.7685     
 ALLREACHES                                   31     (1,13,1)              993.34       1.4646       60.000       997.01       0.36000     -1.2221     
 ------------------------------------------------------------------------------------------------------------------------------------------------------



 LAK PACKAGE (LAK-1) STAGES FOR EACH CONTROL VOLUME   PERIOD     12   STEP       15
 --------------------------------------------------------------
   NUMBER      STAGE     SURFACE AREA WETTED AREA     VOLUME   
 --------------------------------------------------------------
     1       1041.3       1.00000E+08  1.01383E+08  4.27558E+09
     2       1001.4       3.00000E+08  3.01460E+08  5.30074E+09
 --------------------------------------------------------------



 HEAD WILL BE SAVED ON UNIT 1026 AT END OF TIME STEP   15, STRESS PERIOD   12


  SFR-1 BUDGET FOR ENTIRE MODEL AT END OF TIME STEP   15, STRESS PERIOD  12
  ------------------------------------------------------------------------------

     CUMULATIVE SFR-1      L**3       RATES FOR THIS TIME STEP      L**3/T
     ------------------                 ------------------------

           IN:                                      IN:
           ---                                      ---
                 GWF =   187313963.2917                   GWF =           6.5700
            RAINFALL =           0.0000              RAINFALL =           0.0000
         EVAPORATION =           0.0000           EVAPORATION =           0.0000
              RUNOFF =           0.0000                RUNOFF =           0.0000
          EXT-INFLOW =  5834160000.0000            EXT-INFLOW =         185.0000
         EXT-OUTFLOW =       1.2518E-02           EXT-OUTFLOW =           0.0000
             STORAGE =           0.0000               STORAGE =           0.0000
            FROM-MVR =  7113288278.2884              FROM-MVR =         227.4446
              TO-MVR =           0.0000                TO-MVR =           0.0000

            TOTAL IN = 13134762241.5926              TOTAL IN =         419.0146

          OUT:                                     OUT:
          ----                                     ----
                 GWF =   374456396.4998                   GWF =          11.8740
            RAINFALL =           0.0000              RAINFALL =           0.0000
         EVAPORATION =           0.0000           EVAPORATION =           0.0000
              RUNOFF =           0.0000                RUNOFF =           0.0000
          EXT-INFLOW =           0.0000            EXT-INFLOW =           0.0000
         EXT-OUTFLOW =  6219726167.1867           EXT-OUTFLOW =         199.1254
             STORAGE =           0.0000               STORAGE =           0.0000
            FROM-MVR =           0.0000              FROM-MVR =           0.0000
              TO-MVR =  6540579677.9062                TO-MVR =         208.0152

           TOTAL OUT = 13134762241.5926             TOTAL OUT =         419.0146

            IN - OUT =       1.9073E-06              IN - OUT =           0.0000

 PERCENT DISCREPANCY =           0.00     PERCENT DISCREPANCY =           0.00



  LAK-1 BUDGET FOR ENTIRE MODEL AT END OF TIME STEP   15, STRESS PERIOD  12
  ------------------------------------------------------------------------------

     CUMULATIVE LAK-1      L**3       RATES FOR THIS TIME STEP      L**3/T
     ------------------                 ------------------------

           IN:                                      IN:
           ---                                      ---
                 GWF =   239987738.5496                   GWF =           8.3244
            RAINFALL =   271209600.0000              RAINFALL =           8.6000
         EVAPORATION =           0.0000           EVAPORATION =           0.0000
              RUNOFF =   141912000.0000                RUNOFF =           4.5000
          EXT-INFLOW =           0.0000            EXT-INFLOW =           0.0000
          WITHDRAWAL =           0.0000            WITHDRAWAL =           0.0000
         EXT-OUTFLOW =           0.5587           EXT-OUTFLOW =       3.9077E-07
             STORAGE =      281864.7487               STORAGE =       4.8468E-03
            CONSTANT =           0.0000              CONSTANT =           0.0000
            FROM-MVR =  6540579677.9062              FROM-MVR =         208.0152
              TO-MVR =           0.0000                TO-MVR =           0.0000

            TOTAL IN =  7193970881.7631              TOTAL IN =         229.4445

          OUT:                                     OUT:
          ----                                     ----
                 GWF =   128071927.1826                   GWF =           3.8684
            RAINFALL =           0.0000              RAINFALL =           0.0000
         EVAPORATION =   135604800.0000           EVAPORATION =           4.3000
              RUNOFF =           0.0000                RUNOFF =           0.0000
          EXT-INFLOW =           0.0000            EXT-INFLOW =           0.0000
          WITHDRAWAL =     3784320.0000            WITHDRAWAL =           0.1200
         EXT-OUTFLOW =           2.1955           EXT-OUTFLOW =           0.0000
             STORAGE =     3316488.6785               STORAGE =       3.6334E-02
            CONSTANT =           0.0000              CONSTANT =           0.0000
            FROM-MVR =           0.0000              FROM-MVR =           0.0000
              TO-MVR =  6923193340.5875                TO-MVR =         221.1198

           TOTAL OUT =  7193970878.6442             TOTAL OUT =         229.4445

            IN - OUT =           3.1189              IN - OUT =      -5.6999E-06

 PERCENT DISCREPANCY =           0.00     PERCENT DISCREPANCY =          -0.00



  UZF-1 BUDGET FOR ENTIRE MODEL AT END OF TIME STEP   15, STRESS PERIOD  12
  ------------------------------------------------------------------------------

     CUMULATIVE UZF-1      L**3       RATES FOR THIS TIME STEP      L**3/T
     ------------------                 ------------------------

           IN:                                      IN:
           ---                                      ---
                 GWF =           0.0000                   GWF =           0.0000
        INFILTRATION =  3022351635.6000          INFILTRATION =           7.6500
             REJ-INF =           0.0000               REJ-INF =           0.0000
                UZET =           0.0000                  UZET =           0.0000
             STORAGE =  1338385954.7231               STORAGE =          57.0834
            FROM-MVR =   201042000.0000              FROM-MVR =           0.0000
      REJ-INF-TO-MVR =           0.0000        REJ-INF-TO-MVR =           0.0000

            TOTAL IN =  4561779590.3231              TOTAL IN =          64.7334

          OUT:                                     OUT:
          ----                                     ----
                 GWF =   675059797.3945                   GWF =          37.8590
        INFILTRATION =           0.0000          INFILTRATION =           0.0000
             REJ-INF =          11.4197               REJ-INF =           0.0000
                UZET =   649356967.6495                  UZET =          21.3847
             STORAGE =  3227485827.9048               STORAGE =           5.4646
            FROM-MVR =           0.0000              FROM-MVR =           0.0000
      REJ-INF-TO-MVR =     9876933.6784        REJ-INF-TO-MVR =       2.5000E-02

           TOTAL OUT =  4561779538.0469             TOTAL OUT =          64.7333

            IN - OUT =          52.2762              IN - OUT =       2.5728E-06

 PERCENT DISCREPANCY =           0.00     PERCENT DISCREPANCY =           0.00



  WATER MOVER BUDGET FOR ENTIRE MODEL AT END OF TIME STEP   15, STRESS PERIOD  12
  ------------------------------------------------------------------------------

     CUMULATIVE WATER MOVER      L**3       RATES FOR THIS TIME STEP      L**3/T
     ------------------                 ------------------------

           IN:                                      IN:
           ---                                      ---
               UZF-1 =   190094937.7008                 UZF-1 =           6.3249
               SFR-1 =  6540579677.9062                 SFR-1 =         208.0152
               LAK-1 =  6923193340.5875                 LAK-1 =         221.1198
               WEL-1 =   201042000.0000                 WEL-1 =           0.0000

            TOTAL IN = 13854909956.1945              TOTAL IN =         435.4599

          OUT:                                     OUT:
          ----                                     ----
               UZF-1 =   201042000.0000                 UZF-1 =           0.0000
               SFR-1 =  7113288278.2884                 SFR-1 =         227.4446
               LAK-1 =  6540579677.9062                 LAK-1 =         208.0152
               WEL-1 =           0.0000                 WEL-1 =           0.0000

           TOTAL OUT = 13854909956.1945             TOTAL OUT =         435.4599

            IN - OUT =           0.0000              IN - OUT =           0.0000

 PERCENT DISCREPANCY =           0.00     PERCENT DISCREPANCY =           0.00



  VOLUME BUDGET FOR ENTIRE MODEL AT END OF TIME STEP   15, STRESS PERIOD  12
  ---------------------------------------------------------------------------------------------------

     CUMULATIVE VOLUME      L**3       RATES FOR THIS TIME STEP      L**3/T          PACKAGE NAME    
     ------------------                 ------------------------                     ----------------

           IN:                                      IN:
           ---                                      ---
              STO-SS =      745757.6977                STO-SS =       2.4145E-02     STORAGE                          
              STO-SY =   235487682.2681                STO-SY =           5.2123     STORAGE                          
                 WEL =           0.0000                   WEL =           0.0000     WEL-1                            
          WEL-TO-MVR =           0.0000            WEL-TO-MVR =           0.0000     WEL-1                            
                 GHB =    22269085.6141                   GHB =           0.6805     GHB_0                            
                 SFR =   374456396.4998                   SFR =          11.8740     SFR-1                            
                 LAK =   128071927.1826                   LAK =           3.8684     LAK-1                            
           UZF-GWRCH =   675059797.3945             UZF-GWRCH =          37.8590     UZF-1                            
             UZF-GWD =           0.0000               UZF-GWD =           0.0000     UZF-1                            
      UZF-GWD TO-MVR =           0.0000        UZF-GWD TO-MVR =           0.0000     UZF-1                            
            UZF-GWET =           0.0000              UZF-GWET =           0.0000     UZF-1                            

            TOTAL IN =  1436090646.6568              TOTAL IN =          59.5184

          OUT:                                     OUT:
          ----                                     ----
              STO-SS =     3129857.3217                STO-SS =           0.1623     STORAGE                          
              STO-SY =   596017640.9836                STO-SY =          37.2295     STORAGE                          
                 WEL =           0.0000                   WEL =           0.0000     WEL-1                            
          WEL-TO-MVR =   201042000.0000            WEL-TO-MVR =           0.0000     WEL-1                            
                 GHB =    10789943.2516                   GHB =           0.3422     GHB_0                            
                 SFR =   187314192.4230                   SFR =           6.5700     SFR-1                            
                 LAK =   239987738.5496                   LAK =           8.3244     LAK-1                            
           UZF-GWRCH =           0.0000             UZF-GWRCH =           0.0000     UZF-1                            
             UZF-GWD =          87.9954               UZF-GWD =           0.0000     UZF-1                            
      UZF-GWD TO-MVR =   180218004.0225        UZF-GWD TO-MVR =           6.2999     UZF-1                            
            UZF-GWET =    17581392.1820              UZF-GWET =           0.5907     UZF-1                            

           TOTAL OUT =  1436080856.7294             TOTAL OUT =          59.5190

            IN - OUT =        9789.9273              IN - OUT =      -6.3530E-04

 PERCENT DISCREPANCY =           0.00     PERCENT DISCREPANCY =          -0.00




         TIME SUMMARY AT END OF TIME STEP   15 IN STRESS PERIOD   12
                    SECONDS     MINUTES      HOURS       DAYS        YEARS
                    -----------------------------------------------------------
   TIME STEP LENGTH 1.75200E+05  2920.0      48.667      2.0278     5.55175E-03
 STRESS PERIOD TIME 2.62800E+06  43800.      730.00      30.417     8.32763E-02
         TOTAL TIME 3.15360E+07 5.25600E+05  8760.0      365.00     0.99932    


end timestep


start timestep kper="13" kstp="1" mode="normal"


 OUTPUT CONTROL FOR STRESS PERIOD 13 IS REPEATED USING SETTINGS FROM A PREVIOUS STRESS PERIOD.


 STRESS PERIOD 13 IS TRANSIENT


 REUSING MVRS FROM LAST STRESS PERIOD

 REUSING SFRS FROM LAST STRESS PERIOD

 REUSING LAKS FROM LAST STRESS PERIOD

end timestep


start timestep kper="13" kstp="2" mode="normal"


end timestep


start timestep kper="13" kstp="3" mode="normal"


end timestep


start timestep kper="13" kstp="4" mode="normal"


end timestep


start timestep kper="13" kstp="5" mode="normal"


end timestep


start timestep kper="13" kstp="6" mode="normal"


end timestep


start timestep kper="13" kstp="7" mode="normal"


end timestep


start timestep kper="13" kstp="8" mode="normal"


end timestep


start timestep kper="13" kstp="9" mode="normal"


end timestep


start timestep kper="13" kstp="10" mode="normal"


end timestep


start timestep kper="13" kstp="11" mode="normal"


end timestep


start timestep kper="13" kstp="12" mode="normal"


end timestep


start timestep kper="13" kstp="13" mode="normal"


end timestep


start timestep kper="13" kstp="14" mode="normal"


end timestep


start timestep kper="13" kstp="15" mode="normal"

 UBDSV1 SAVING           STO-SS ON UNIT   1025 AT TIME STEP     15, STRESS PERIOD     13
 UBDSV1 SAVING           STO-SY ON UNIT   1025 AT TIME STEP     15, STRESS PERIOD     13
 UBDSV1 SAVING     FLOW-JA-FACE ON UNIT   1025 AT TIME STEP     15, STRESS PERIOD     13
 UBDSV06 SAVING       DATA-SPDIS IN MODEL E13              PACKAGE NPF             CONNECTED TO MODEL E13              PACKAGE NPF              ON UNIT   1025 AT TIME STEP     15, STRESS PERIOD     13
 UBDSV06 SAVING              WEL IN MODEL E13              PACKAGE E13             CONNECTED TO MODEL E13              PACKAGE WEL-1            ON UNIT   1025 AT TIME STEP     15, STRESS PERIOD     13
 UBDSV06 SAVING       WEL-TO-MVR IN MODEL E13              PACKAGE E13             CONNECTED TO MODEL E13              PACKAGE WEL-1            ON UNIT   1025 AT TIME STEP     15, STRESS PERIOD     13
 UBDSV06 SAVING              GHB IN MODEL E13              PACKAGE E13             CONNECTED TO MODEL E13              PACKAGE GHB_0            ON UNIT   1025 AT TIME STEP     15, STRESS PERIOD     13
 UBDSV06 SAVING              SFR IN MODEL E13              PACKAGE E13             CONNECTED TO MODEL E13              PACKAGE SFR-1            ON UNIT   1025 AT TIME STEP     15, STRESS PERIOD     13
 UBDSV06 SAVING              LAK IN MODEL E13              PACKAGE E13             CONNECTED TO MODEL E13              PACKAGE LAK-1            ON UNIT   1025 AT TIME STEP     15, STRESS PERIOD     13
 UBDSV06 SAVING        UZF-GWRCH IN MODEL E13              PACKAGE E13             CONNECTED TO MODEL E13              PACKAGE UZF-1            ON UNIT   1025 AT TIME STEP     15, STRESS PERIOD     13
 UBDSV06 SAVING          UZF-GWD IN MODEL E13              PACKAGE E13             CONNECTED TO MODEL E13              PACKAGE UZF-1            ON UNIT   1025 AT TIME STEP     15, STRESS PERIOD     13
 UBDSV06 SAVING   UZF-GWD TO-MVR IN MODEL E13              PACKAGE E13             CONNECTED TO MODEL E13              PACKAGE UZF-1            ON UNIT   1025 AT TIME STEP     15, STRESS PERIOD     13
 UBDSV06 SAVING         UZF-GWET IN MODEL E13              PACKAGE E13             CONNECTED TO MODEL E13              PACKAGE UZF-1            ON UNIT   1025 AT TIME STEP     15, STRESS PERIOD     13
 UBDSV06 SAVING     FLOW-JA-FACE IN MODEL E13              PACKAGE SFR-1           CONNECTED TO MODEL E13              PACKAGE SFR-1            ON UNIT   1017 AT TIME STEP     15, STRESS PERIOD     13
 UBDSV06 SAVING              GWF IN MODEL E13              PACKAGE SFR-1           CONNECTED TO MODEL E13              PACKAGE E13              ON UNIT   1017 AT TIME STEP     15, STRESS PERIOD     13
 UBDSV06 SAVING         RAINFALL IN MODEL E13              PACKAGE SFR-1           CONNECTED TO MODEL E13              PACKAGE SFR-1            ON UNIT   1017 AT TIME STEP     15, STRESS PERIOD     13
 UBDSV06 SAVING      EVAPORATION IN MODEL E13              PACKAGE SFR-1           CONNECTED TO MODEL E13              PACKAGE SFR-1            ON UNIT   1017 AT TIME STEP     15, STRESS PERIOD     13
 UBDSV06 SAVING           RUNOFF IN MODEL E13              PACKAGE SFR-1           CONNECTED TO MODEL E13              PACKAGE SFR-1            ON UNIT   1017 AT TIME STEP     15, STRESS PERIOD     13
 UBDSV06 SAVING       EXT-INFLOW IN MODEL E13              PACKAGE SFR-1           CONNECTED TO MODEL E13              PACKAGE SFR-1            ON UNIT   1017 AT TIME STEP     15, STRESS PERIOD     13
 UBDSV06 SAVING      EXT-OUTFLOW IN MODEL E13              PACKAGE SFR-1           CONNECTED TO MODEL E13              PACKAGE SFR-1            ON UNIT   1017 AT TIME STEP     15, STRESS PERIOD     13
 UBDSV06 SAVING          STORAGE IN MODEL E13              PACKAGE SFR-1           CONNECTED TO MODEL E13              PACKAGE SFR-1            ON UNIT   1017 AT TIME STEP     15, STRESS PERIOD     13
 UBDSV06 SAVING         FROM-MVR IN MODEL E13              PACKAGE SFR-1           CONNECTED TO MODEL E13              PACKAGE SFR-1            ON UNIT   1017 AT TIME STEP     15, STRESS PERIOD     13
 UBDSV06 SAVING           TO-MVR IN MODEL E13              PACKAGE SFR-1           CONNECTED TO MODEL E13              PACKAGE SFR-1            ON UNIT   1017 AT TIME STEP     15, STRESS PERIOD     13
 UBDSV06 SAVING              GWF IN MODEL E13              PACKAGE LAK-1           CONNECTED TO MODEL E13              PACKAGE E13              ON UNIT   1019 AT TIME STEP     15, STRESS PERIOD     13
 UBDSV06 SAVING         RAINFALL IN MODEL E13              PACKAGE LAK-1           CONNECTED TO MODEL E13              PACKAGE LAK-1            ON UNIT   1019 AT TIME STEP     15, STRESS PERIOD     13
 UBDSV06 SAVING      EVAPORATION IN MODEL E13              PACKAGE LAK-1           CONNECTED TO MODEL E13              PACKAGE LAK-1            ON UNIT   1019 AT TIME STEP     15, STRESS PERIOD     13
 UBDSV06 SAVING           RUNOFF IN MODEL E13              PACKAGE LAK-1           CONNECTED TO MODEL E13              PACKAGE LAK-1            ON UNIT   1019 AT TIME STEP     15, STRESS PERIOD     13
 UBDSV06 SAVING       EXT-INFLOW IN MODEL E13              PACKAGE LAK-1           CONNECTED TO MODEL E13              PACKAGE LAK-1            ON UNIT   1019 AT TIME STEP     15, STRESS PERIOD     13
 UBDSV06 SAVING       WITHDRAWAL IN MODEL E13              PACKAGE LAK-1           CONNECTED TO MODEL E13              PACKAGE LAK-1            ON UNIT   1019 AT TIME STEP     15, STRESS PERIOD     13
 UBDSV06 SAVING      EXT-OUTFLOW IN MODEL E13              PACKAGE LAK-1           CONNECTED TO MODEL E13              PACKAGE LAK-1            ON UNIT   1019 AT TIME STEP     15, STRESS PERIOD     13
 UBDSV06 SAVING          STORAGE IN MODEL E13              PACKAGE LAK-1           CONNECTED TO MODEL E13              PACKAGE LAK-1            ON UNIT   1019 AT TIME STEP     15, STRESS PERIOD     13
 UBDSV06 SAVING         CONSTANT IN MODEL E13              PACKAGE LAK-1           CONNECTED TO MODEL E13              PACKAGE LAK-1            ON UNIT   1019 AT TIME STEP     15, STRESS PERIOD     13
 UBDSV06 SAVING         FROM-MVR IN MODEL E13              PACKAGE LAK-1           CONNECTED TO MODEL E13              PACKAGE LAK-1            ON UNIT   1019 AT TIME STEP     15, STRESS PERIOD     13
 UBDSV06 SAVING           TO-MVR IN MODEL E13              PACKAGE LAK-1           CONNECTED TO MODEL E13              PACKAGE LAK-1            ON UNIT   1019 AT TIME STEP     15, STRESS PERIOD     13
 UBDSV06 SAVING     FLOW-JA-FACE IN MODEL E13              PACKAGE UZF-1           CONNECTED TO MODEL E13              PACKAGE UZF-1            ON UNIT   1021 AT TIME STEP     15, STRESS PERIOD     13
 UBDSV06 SAVING              GWF IN MODEL E13              PACKAGE UZF-1           CONNECTED TO MODEL E13              PACKAGE E13              ON UNIT   1021 AT TIME STEP     15, STRESS PERIOD     13
 UBDSV06 SAVING     INFILTRATION IN MODEL E13              PACKAGE UZF-1           CONNECTED TO MODEL E13              PACKAGE UZF-1            ON UNIT   1021 AT TIME STEP     15, STRESS PERIOD     13
 UBDSV06 SAVING          REJ-INF IN MODEL E13              PACKAGE UZF-1           CONNECTED TO MODEL E13              PACKAGE UZF-1            ON UNIT   1021 AT TIME STEP     15, STRESS PERIOD     13
 UBDSV06 SAVING             UZET IN MODEL E13              PACKAGE UZF-1           CONNECTED TO MODEL E13              PACKAGE UZF-1            ON UNIT   1021 AT TIME STEP     15, STRESS PERIOD     13
 UBDSV06 SAVING          STORAGE IN MODEL E13              PACKAGE UZF-1           CONNECTED TO MODEL E13              PACKAGE UZF-1            ON UNIT   1021 AT TIME STEP     15, STRESS PERIOD     13
 UBDSV06 SAVING         FROM-MVR IN MODEL E13              PACKAGE UZF-1           CONNECTED TO MODEL E13              PACKAGE UZF-1            ON UNIT   1021 AT TIME STEP     15, STRESS PERIOD     13
 UBDSV06 SAVING   REJ-INF-TO-MVR IN MODEL E13              PACKAGE UZF-1           CONNECTED TO MODEL E13              PACKAGE UZF-1            ON UNIT   1021 AT TIME STEP     15, STRESS PERIOD     13
 UBDSV06 SAVING       MOVER-FLOW IN MODEL E13              PACKAGE UZF-1           CONNECTED TO MODEL E13              PACKAGE UZF-1            ON UNIT   1023 AT TIME STEP     15, STRESS PERIOD     13
 UBDSV06 SAVING       MOVER-FLOW IN MODEL E13              PACKAGE UZF-1           CONNECTED TO MODEL E13              PACKAGE SFR-1            ON UNIT   1023 AT TIME STEP     15, STRESS PERIOD     13
 UBDSV06 SAVING       MOVER-FLOW IN MODEL E13              PACKAGE UZF-1           CONNECTED TO MODEL E13              PACKAGE LAK-1            ON UNIT   1023 AT TIME STEP     15, STRESS PERIOD     13
 UBDSV06 SAVING       MOVER-FLOW IN MODEL E13              PACKAGE UZF-1           CONNECTED TO MODEL E13              PACKAGE WEL-1            ON UNIT   1023 AT TIME STEP     15, STRESS PERIOD     13
 UBDSV06 SAVING       MOVER-FLOW IN MODEL E13              PACKAGE SFR-1           CONNECTED TO MODEL E13              PACKAGE UZF-1            ON UNIT   1023 AT TIME STEP     15, STRESS PERIOD     13
 UBDSV06 SAVING       MOVER-FLOW IN MODEL E13              PACKAGE SFR-1           CONNECTED TO MODEL E13              PACKAGE SFR-1            ON UNIT   1023 AT TIME STEP     15, STRESS PERIOD     13
 UBDSV06 SAVING       MOVER-FLOW IN MODEL E13              PACKAGE SFR-1           CONNECTED TO MODEL E13              PACKAGE LAK-1            ON UNIT   1023 AT TIME STEP     15, STRESS PERIOD     13
 UBDSV06 SAVING       MOVER-FLOW IN MODEL E13              PACKAGE SFR-1           CONNECTED TO MODEL E13              PACKAGE WEL-1            ON UNIT   1023 AT TIME STEP     15, STRESS PERIOD     13
 UBDSV06 SAVING       MOVER-FLOW IN MODEL E13              PACKAGE LAK-1           CONNECTED TO MODEL E13              PACKAGE UZF-1            ON UNIT   1023 AT TIME STEP     15, STRESS PERIOD     13
 UBDSV06 SAVING       MOVER-FLOW IN MODEL E13              PACKAGE LAK-1           CONNECTED TO MODEL E13              PACKAGE SFR-1            ON UNIT   1023 AT TIME STEP     15, STRESS PERIOD     13
 UBDSV06 SAVING       MOVER-FLOW IN MODEL E13              PACKAGE LAK-1           CONNECTED TO MODEL E13              PACKAGE LAK-1            ON UNIT   1023 AT TIME STEP     15, STRESS PERIOD     13
 UBDSV06 SAVING       MOVER-FLOW IN MODEL E13              PACKAGE LAK-1           CONNECTED TO MODEL E13              PACKAGE WEL-1            ON UNIT   1023 AT TIME STEP     15, STRESS PERIOD     13
 UBDSV06 SAVING       MOVER-FLOW IN MODEL E13              PACKAGE WEL-1           CONNECTED TO MODEL E13              PACKAGE UZF-1            ON UNIT   1023 AT TIME STEP     15, STRESS PERIOD     13
 UBDSV06 SAVING       MOVER-FLOW IN MODEL E13              PACKAGE WEL-1           CONNECTED TO MODEL E13              PACKAGE SFR-1            ON UNIT   1023 AT TIME STEP     15, STRESS PERIOD     13
 UBDSV06 SAVING       MOVER-FLOW IN MODEL E13              PACKAGE WEL-1           CONNECTED TO MODEL E13              PACKAGE LAK-1            ON UNIT   1023 AT TIME STEP     15, STRESS PERIOD     13
 UBDSV06 SAVING       MOVER-FLOW IN MODEL E13              PACKAGE WEL-1           CONNECTED TO MODEL E13              PACKAGE WEL-1            ON UNIT   1023 AT TIME STEP     15, STRESS PERIOD     13

 WEL PACKAGE (WEL-1) FLOW RATES   PERIOD     13   STEP       15
 -----------------------------------------------
   NUMBER   CELLID                    RATE      
 -----------------------------------------------
     1      (1,6,4)               0.0000000     
     2      (1,6,5)               0.0000000     
     3      (1,7,4)               0.0000000     
     4      (1,7,5)               0.0000000     
     5      (1,8,4)               0.0000000     
     6      (1,8,5)               0.0000000     
     7      (1,9,4)               0.0000000     
     8      (1,9,5)               0.0000000     
     9      (1,10,4)              0.0000000     
     10     (1,10,5)              0.0000000     
 -----------------------------------------------




 WEL PACKAGE (WEL-1) FLOW RATES TO-MVR   PERIOD     13   STEP       15
 -----------------------------------------------
   NUMBER   CELLID                    RATE      
 -----------------------------------------------
     1      (1,6,4)               0.0000000     
     2      (1,6,5)               0.0000000     
     3      (1,7,4)               0.0000000     
     4      (1,7,5)               0.0000000     
     5      (1,8,4)               0.0000000     
     6      (1,8,5)               0.0000000     
     7      (1,9,4)               0.0000000     
     8      (1,9,5)               0.0000000     
     9      (1,10,4)              0.0000000     
     10     (1,10,5)              0.0000000     
 -----------------------------------------------




 SFR PACKAGE (SFR-1) FLOW RATES   PERIOD     13   STEP       15
 ----------------------------------------------------------------------------------------
   NUMBER   CELLID                    RATE       NAME                                    
 ----------------------------------------------------------------------------------------
     1      (1,1,1)               0.22868377     ALLREACHES                              
     2      (1,2,2)               0.35499870     ALLREACHES                              
     3      (1,3,3)               0.30357347     ALLREACHES                              
     4      (1,3,4)               0.28021936     ALLREACHES                              
     5      (1,4,5)               0.29960805     ALLREACHES                              
     6      (1,5,6)               0.22987955     ALLREACHES                              
     7      (1,6,6)               0.22936563     ALLREACHES                              
     8      (1,7,6)               0.22884928     ALLREACHES                              
     9      (1,8,6)               0.22833044     ALLREACHES                              
     10     (1,3,5)               2.12214188E-02 ALLREACHES                              
     11     (1,3,6)               1.99133007E-02 ALLREACHES                              
     12     (1,3,7)               1.67956407E-02 ALLREACHES                              
     13     (1,4,8)               2.07205450E-02 ALLREACHES                              
     14     (1,5,8)               1.57905563E-02 ALLREACHES                              
     15     (1,6,8)               5.93648362E-03 ALLREACHES                              
     16     (1,5,10)              9.09197693E-02 ALLREACHES                              
     17     (1,5,9)               0.18157734     ALLREACHES                              
     18     (1,6,8)               0.12689514     ALLREACHES                              
     19     (1,6,8)               0.17138468     ALLREACHES                              
     20     (1,7,7)               0.21384773     ALLREACHES                              
     21     (1,8,7)               0.14943953     ALLREACHES                              
     22     (1,8,6)               0.10661428     ALLREACHES                              
     23     (1,9,6)               0.24837387     ALLREACHES                              
     24     (1,12,7)              2.55359424E-02 ALLREACHES                              
     25     (1,13,7)              2.80854762E-02 ALLREACHES                              
     26     (1,14,9)              2.6922030      ALLREACHES                              
     27     (1,13,8)              2.6824902      ALLREACHES                              
     28     (1,13,7)              2.6727412      ALLREACHES                              
     29     (1,13,6)             -2.0432731      ALLREACHES                              
     30     (1,13,2)             -3.1822435      ALLREACHES                              
     31     (1,13,1)             -1.3199226      ALLREACHES                              
 ----------------------------------------------------------------------------------------




 LAK PACKAGE (LAK-1) FLOW RATES   PERIOD     13   STEP       15
 -----------------------------------------------
   NUMBER   CELLID                    RATE      
 -----------------------------------------------
     1      (1,9,7)               8.28472255E-03
     2      (1,10,6)              1.06799696E-02
     3      (2,10,7)              0.96054550    
     4      (1,9,8)               5.83200761E-03
     5      (1,10,9)              1.05532009E-04
     6      (2,10,8)              0.93427621    
     7      (1,11,6)              1.14756933E-02
     8      (1,12,7)              1.06858318E-02
     9      (2,11,7)              0.95668149    
     10     (1,11,9)              2.62965042E-03
     11     (1,12,8)              1.03427422E-02
     12     (2,11,8)              0.92981096    
     13     (1,10,3)             -8.99471268E-04
     14     (1,11,2)             -1.21961857E-03
     15     (2,11,3)             -0.67565089    
     16     (1,10,4)             -1.12536493E-03
     17     (2,11,4)             -0.69429116    
     18     (1,10,5)             -2.93532086E-03
     19     (1,11,6)             -4.27941344E-03
     20     (2,11,5)             -0.72016626    
     21     (1,12,2)             -4.24581255E-03
     22     (2,12,3)             -0.64875546    
     23     (2,12,4)             -0.68217155    
     24     (1,12,6)             -5.91956171E-03
     25     (2,12,5)             -0.71631581    
     26     (1,13,2)             -1.08324367E-03
     27     (2,13,3)             -0.64041464    
     28     (2,13,4)             -0.68267759    
     29     (1,13,6)             -6.40201253E-03
     30     (2,13,5)             -0.72010063    
     31     (1,14,2)             -4.29373175E-03
     32     (1,15,3)              0.0000000     
     33     (2,14,3)             -0.65910509    
     34     (1,15,4)              0.0000000     
     35     (2,14,4)             -0.69418334    
     36     (1,14,6)             -3.85706055E-03
     37     (1,15,5)              0.0000000     
     38     (2,14,5)             -0.72782088    
 -----------------------------------------------




 SFR-1 PACKAGE - SUMMARY OF FLOWS FOR EACH CONTROL VOLUME   PERIOD     13   STEP       15
 --------------------------------------------------------------------------------------------------------------------------------------------------------------------------------------------------------
                                                                                                                                                                                               PERCENT   
   NUMBER   CELLID                  INFLOW      OUTFLOW        GWF        RAINFALL   EVAPORATION     RUNOFF     EXT INFLOW  EXT OUTFLOW    STORAGE      FROM MVR      TO MVR      IN - OUT    DIFFERENCE 
 --------------------------------------------------------------------------------------------------------------------------------------------------------------------------------------------------------
     1      (1,1,1)               0.0000      -24.771      -0.22868      0.0000       0.0000       0.0000       25.000       0.0000       0.0000       0.0000       0.0000       0.0000       0.0000     
     2      (1,2,2)               24.771      -24.416      -0.35500      0.0000       0.0000       0.0000       0.0000       0.0000       0.0000       0.0000       0.0000       0.0000       0.0000     
     3      (1,3,3)               24.416      -24.113      -0.30357      0.0000       0.0000       0.0000       0.0000       0.0000       0.0000       0.0000       0.0000       0.0000       0.0000     
     4      (1,3,4)               24.113      -23.833      -0.28022      0.0000       0.0000       0.0000       0.0000       0.0000       0.0000       0.0000       0.0000       0.0000       0.0000     
     5      (1,4,5)               13.833      -13.533      -0.29961      0.0000       0.0000       0.0000       0.0000       0.0000       0.0000       0.0000       0.0000       0.0000       0.0000     
     6      (1,5,6)               13.533      -13.303      -0.22988      0.0000       0.0000       0.0000       0.0000       0.0000       0.0000       0.0000       0.0000       0.0000       0.0000     
     7      (1,6,6)               13.303      -13.074      -0.22937      0.0000       0.0000       0.0000       0.0000       0.0000       0.0000       0.0000       0.0000       0.0000       0.0000     
     8      (1,7,6)               13.074      -12.845      -0.22885      0.0000       0.0000       0.0000       0.0000       0.0000       0.0000       0.0000       0.0000       0.0000       0.0000     
     9      (1,8,6)               12.845      -12.616      -0.22833      0.0000       0.0000       0.0000       0.0000       0.0000       0.0000       0.0000       0.0000       0.0000       0.0000     
     10     (1,3,5)               10.000      -9.9788      -2.12214E-02  0.0000       0.0000       0.0000       0.0000       0.0000       0.0000       0.0000       0.0000       0.0000       0.0000     
     11     (1,3,6)               9.9788      -9.9589      -1.99133E-02  0.0000       0.0000       0.0000       0.0000       0.0000       0.0000       0.0000       0.0000       0.0000       0.0000     
     12     (1,3,7)               9.9589      -9.9421      -1.67956E-02  0.0000       0.0000       0.0000       0.0000       0.0000       0.0000       0.0000       0.0000       0.0000       0.0000     
     13     (1,4,8)               9.9421      -9.9213      -2.07205E-02  0.0000       0.0000       0.0000       0.0000       0.0000       0.0000       0.0000       0.0000       0.0000       0.0000     
     14     (1,5,8)               9.9213      -9.9056      -1.57906E-02  0.0000       0.0000       0.0000       0.0000       0.0000       0.0000       0.0000       0.0000       0.0000       0.0000     
     15     (1,6,8)               9.9056      -9.8996      -5.93648E-03  0.0000       0.0000       0.0000       0.0000       0.0000       0.0000       0.0000       0.0000       0.0000       0.0000     
     16     (1,5,10)              0.0000      -9.9091      -9.09198E-02  0.0000       0.0000       0.0000       10.000       0.0000       0.0000       0.0000       0.0000       0.0000       0.0000     
     17     (1,5,9)               9.9091      -9.7275      -0.18158      0.0000       0.0000       0.0000       0.0000       0.0000       0.0000       0.0000       0.0000       0.0000       0.0000     
     18     (1,6,8)               9.7275      -9.6006      -0.12690      0.0000       0.0000       0.0000       0.0000       0.0000       0.0000       0.0000       0.0000       0.0000       0.0000     
     19     (1,6,8)               19.500      -19.329      -0.17138      0.0000       0.0000       0.0000       0.0000       0.0000       0.0000       0.0000       0.0000       0.0000       0.0000     
     20     (1,7,7)               19.329      -19.115      -0.21385      0.0000       0.0000       0.0000       0.0000       0.0000       0.0000       0.0000       0.0000       0.0000       0.0000     
     21     (1,8,7)               19.115      -18.966      -0.14944      0.0000       0.0000       0.0000       0.0000       0.0000       0.0000       0.0000       0.0000       0.0000       0.0000     
     22     (1,8,6)               18.966      -18.859      -0.10661      0.0000       0.0000       0.0000       0.0000       0.0000       0.0000       0.0000       0.0000       0.0000       0.0000     
     23     (1,9,6)               31.475       0.0000      -0.24837      0.0000       0.0000       0.0000       0.0000       0.0000       0.0000       0.0000      -31.227       0.0000       0.0000     
     24     (1,12,7)              0.0000      -32.834      -2.55359E-02  0.0000       0.0000       0.0000       0.0000       0.0000       0.0000       32.859       0.0000       0.0000       0.0000     
     25     (1,13,7)              32.834      -32.805      -2.80855E-02  0.0000       0.0000       0.0000       0.0000       0.0000       0.0000       0.0000       0.0000       0.0000       0.0000     
     26     (1,14,9)              0.0000      -147.31      -2.6922       0.0000       0.0000       0.0000       150.00       0.0000       0.0000       0.0000       0.0000       0.0000       0.0000     
     27     (1,13,8)              147.31      -144.63      -2.6825       0.0000       0.0000       0.0000       0.0000       0.0000       0.0000       0.0000       0.0000       0.0000       0.0000     
     28     (1,13,7)              144.63      -141.95      -2.6727       0.0000       0.0000       0.0000       0.0000       0.0000       0.0000       0.0000       0.0000       0.0000       0.0000     
     29     (1,13,6)              174.76       0.0000       2.0433       0.0000       0.0000       0.0000       0.0000      -1.25708E-08  0.0000       0.0000      -176.80       0.0000       0.0000     
     30     (1,13,2)              0.0000      -191.47       3.1822       0.0000       0.0000       0.0000       0.0000       0.0000       0.0000       188.28       0.0000       0.0000       0.0000     
     31     (1,13,1)              191.47       0.0000       1.3199       0.0000       0.0000       0.0000       0.0000      -199.09       0.0000       6.2998       0.0000       0.0000       0.0000     
 --------------------------------------------------------------------------------------------------------------------------------------------------------------------------------------------------------



 LAK-1 PACKAGE - SUMMARY OF FLOWS FOR EACH CONTROL VOLUME   PERIOD     13   STEP       15
 -----------------------------------------------------------------------------------------------------------------------------------------------------------------------------------
                                                                                                                                                                          PERCENT   
   NUMBER       GWF        RAINFALL   EVAPORATION     RUNOFF     EXT INFLOW   WITHDRAWAL  EXT OUTFLOW    STORAGE      CONSTANT     FROM MVR      TO MVR      IN - OUT    DIFFERENCE 
 -----------------------------------------------------------------------------------------------------------------------------------------------------------------------------------
     1      -3.8414       5.0000      -1.0000       1.5000       0.0000       0.0000       0.0000      -2.66618E-02  0.0000       31.227      -32.859       4.38719E-08  1.16288E-07
     2       8.2979       3.6000      -3.3000       3.0000       0.0000      -0.12000      4.27135E-08  5.46131E-03  0.0000       176.80      -188.28      -2.50393E-07 -1.30614E-07
 -----------------------------------------------------------------------------------------------------------------------------------------------------------------------------------



 WATER MOVER PACKAGE (MVR) FLOW RATES   PERIOD     13   STEP       15
 --------------------------------------------------------------------------------------------------------------------------
                                               PROVIDER  AVAILABLE   PROVIDED                                     RECEIVER 
   NUMBER           PROVIDER LOCATION             ID        RATE       RATE            RECEIVER LOCATION             ID    
 --------------------------------------------------------------------------------------------------------------------------
     1                  E13/SFR-1                 23      31.2       31.2                  E13/LAK-1                 1     
     2                  E13/LAK-1                 1       32.9       32.9                  E13/SFR-1                 24    
     3                  E13/SFR-1                 29      177.       177.                  E13/LAK-1                 2     
     4                  E13/LAK-1                 2       188.       188.                  E13/SFR-1                 30    
     5                  E13/UZF-1                 1       0.00       0.00                  E13/SFR-1                 1     
     6                  E13/UZF-1                 2       0.00       0.00                  E13/SFR-1                 2     
     7                  E13/UZF-1                 3       0.00       0.00                  E13/SFR-1                 2     
     8                  E13/UZF-1                 4       0.00       0.00                  E13/SFR-1                 2     
     9                  E13/UZF-1                 5       0.00       0.00                  E13/SFR-1                 3     
     10                 E13/UZF-1                 6       0.00       0.00                  E13/SFR-1                 11    
     11                 E13/UZF-1                 7       0.00       0.00                  E13/SFR-1                 12    
     12                 E13/UZF-1                 8       0.00       0.00                  E13/SFR-1                 12    
     13                 E13/UZF-1                 9       0.00       0.00                  E13/SFR-1                 2     
     14                 E13/UZF-1                 10      0.00       0.00                  E13/SFR-1                 3     
     15                 E13/UZF-1                 11      0.00       0.00                  E13/SFR-1                 4     
     16                 E13/UZF-1                 12      0.00       0.00                  E13/SFR-1                 10    
     17                 E13/UZF-1                 13      0.00       0.00                  E13/SFR-1                 11    
     18                 E13/UZF-1                 14      0.00       0.00                  E13/SFR-1                 12    
     19                 E13/UZF-1                 15      0.00       0.00                  E13/SFR-1                 13    
     20                 E13/UZF-1                 16      0.00       0.00                  E13/LAK-1                 2     
     21                 E13/UZF-1                 17      0.00       0.00                  E13/LAK-1                 2     
     22                 E13/UZF-1                 18      0.00       0.00                  E13/SFR-1                 3     
     23                 E13/UZF-1                 19      0.00       0.00                  E13/SFR-1                 4     
     24                 E13/UZF-1                 20      0.00       0.00                  E13/SFR-1                 5     
     25                 E13/UZF-1                 21      0.00       0.00                  E13/SFR-1                 6     
     26                 E13/UZF-1                 22      0.00       0.00                  E13/SFR-1                 6     
     27                 E13/UZF-1                 23      0.00       0.00                  E13/SFR-1                 13    
     28                 E13/UZF-1                 24      0.00       0.00                  E13/SFR-1                 17    
     29                 E13/UZF-1                 25      0.00       0.00                  E13/LAK-1                 2     
     30                 E13/UZF-1                 26      0.00       0.00                  E13/LAK-1                 2     
     31                 E13/UZF-1                 27      0.00       0.00                  E13/LAK-1                 2     
     32                 E13/UZF-1                 28      0.00       0.00                  E13/LAK-1                 2     
     33                 E13/UZF-1                 29      0.00       0.00                  E13/SFR-1                 5     
     34                 E13/UZF-1                 30      0.00       0.00                  E13/SFR-1                 6     
     35                 E13/UZF-1                 31      0.00       0.00                  E13/SFR-1                 6     
     36                 E13/UZF-1                 32      0.00       0.00                  E13/SFR-1                 14    
     37                 E13/UZF-1                 33      0.00       0.00                  E13/SFR-1                 17    
     38                 E13/UZF-1                 34      0.00       0.00                  E13/SFR-1                 16    
     39                 E13/UZF-1                 35      0.00       0.00                  E13/LAK-1                 2     
     40                 E13/UZF-1                 36      0.00       0.00                  E13/LAK-1                 2     
     41                 E13/UZF-1                 37      0.00       0.00                  E13/LAK-1                 2     
     42                 E13/UZF-1                 38      0.00       0.00                  E13/LAK-1                 2     
     43                 E13/UZF-1                 39      0.00       0.00                  E13/LAK-1                 2     
     44                 E13/UZF-1                 40      0.00       0.00                  E13/SFR-1                 7     
     45                 E13/UZF-1                 41      0.00       0.00                  E13/SFR-1                 7     
     46                 E13/UZF-1                 42      0.00       0.00                  E13/SFR-1                 19    
     47                 E13/UZF-1                 43      0.00       0.00                  E13/SFR-1                 17    
     48                 E13/UZF-1                 44      0.00       0.00                  E13/SFR-1                 16    
     49                 E13/UZF-1                 45      0.00       0.00                  E13/LAK-1                 2     
     50                 E13/UZF-1                 46      0.00       0.00                  E13/LAK-1                 2     
     51                 E13/UZF-1                 47      0.00       0.00                  E13/LAK-1                 2     
     52                 E13/UZF-1                 48      0.00       0.00                  E13/LAK-1                 2     
     53                 E13/UZF-1                 49      0.00       0.00                  E13/LAK-1                 2     
     54                 E13/UZF-1                 50      0.00       0.00                  E13/SFR-1                 8     
     55                 E13/UZF-1                 51      0.00       0.00                  E13/SFR-1                 20    
     56                 E13/UZF-1                 52      0.00       0.00                  E13/SFR-1                 20    
     57                 E13/UZF-1                 53      0.00       0.00                  E13/SFR-1                 20    
     58                 E13/UZF-1                 54      0.00       0.00                  E13/LAK-1                 2     
     59                 E13/UZF-1                 55      0.00       0.00                  E13/LAK-1                 2     
     60                 E13/UZF-1                 56      0.00       0.00                  E13/LAK-1                 2     
     61                 E13/UZF-1                 57      0.00       0.00                  E13/LAK-1                 2     
     62                 E13/UZF-1                 58      0.00       0.00                  E13/SFR-1                 9     
     63                 E13/UZF-1                 59      0.00       0.00                  E13/SFR-1                 21    
     64                 E13/UZF-1                 60      0.00       0.00                  E13/SFR-1                 21    
     65                 E13/UZF-1                 61      0.00       0.00                  E13/SFR-1                 21    
     66                 E13/UZF-1                 62      0.00       0.00                  E13/LAK-1                 2     
     67                 E13/UZF-1                 63      0.00       0.00                  E13/LAK-1                 2     
     68                 E13/UZF-1                 64      0.00       0.00                  E13/LAK-1                 2     
     69                 E13/UZF-1                 65      0.00       0.00                  E13/LAK-1                 2     
     70                 E13/UZF-1                 66      0.00       0.00                  E13/SFR-1                 23    
     71                 E13/UZF-1                 67      0.00       0.00                  E13/LAK-1                 1     
     72                 E13/UZF-1                 68      0.00       0.00                  E13/LAK-1                 1     
     73                 E13/UZF-1                 69      0.00       0.00                  E13/LAK-1                 1     
     74                 E13/UZF-1                 70      0.00       0.00                  E13/LAK-1                 2     
     75                 E13/UZF-1                 71      0.00       0.00                  E13/LAK-1                 2     
     76                 E13/UZF-1                 72      0.00       0.00                  E13/LAK-1                 2     
     77                 E13/UZF-1                 73      0.00       0.00                  E13/LAK-1                 2     
     78                 E13/UZF-1                 74      0.00       0.00                  E13/LAK-1                 1     
     79                 E13/UZF-1                 75      0.00       0.00                  E13/LAK-1                 1     
     80                 E13/UZF-1                 76      0.00       0.00                  E13/LAK-1                 1     
     81                 E13/UZF-1                 77      0.00       0.00                  E13/LAK-1                 2     
     82                 E13/UZF-1                 78      0.00       0.00                  E13/SFR-1                 9     
     83                 E13/UZF-1                 79      0.00       0.00                  E13/LAK-1                 1     
     84                 E13/UZF-1                 80      0.00       0.00                  E13/SFR-1                 31    
     85                 E13/UZF-1                 81      0.00       0.00                  E13/SFR-1                 30    
     86                 E13/UZF-1                 82      0.00       0.00                  E13/SFR-1                 9     
     87                 E13/UZF-1                 83      0.00       0.00                  E13/SFR-1                 24    
     88                 E13/UZF-1                 84      0.00       0.00                  E13/LAK-1                 1     
     89                 E13/UZF-1                 85      0.00       0.00                  E13/LAK-1                 1     
     90                 E13/UZF-1                 86      6.30       6.30                  E13/SFR-1                 31    
     91                 E13/UZF-1                 87      0.00       0.00                  E13/SFR-1                 30    
     92                 E13/UZF-1                 88      0.00       0.00                  E13/SFR-1                 29    
     93                 E13/UZF-1                 89      0.00       0.00                  E13/SFR-1                 28    
     94                 E13/UZF-1                 90      0.00       0.00                  E13/SFR-1                 27    
     95                 E13/UZF-1                 91      0.00       0.00                  E13/SFR-1                 26    
     96                 E13/UZF-1                 92      0.00       0.00                  E13/SFR-1                 30    
     97                 E13/UZF-1                 93      0.00       0.00                  E13/LAK-1                 2     
     98                 E13/UZF-1                 94      0.00       0.00                  E13/SFR-1                 28    
     99                 E13/UZF-1                 95      0.00       0.00                  E13/SFR-1                 27    
    100                 E13/UZF-1                 96      0.00       0.00                  E13/SFR-1                 26    
    101                 E13/UZF-1                 97      0.00       0.00                  E13/LAK-1                 2     
    102                 E13/UZF-1                 98      0.00       0.00                  E13/LAK-1                 2     
    103                 E13/UZF-1                 99      0.00       0.00                  E13/LAK-1                 2     
    104                 E13/UZF-1                100      0.00       0.00                  E13/LAK-1                 2     
    105                 E13/WEL-1                 1       0.00       0.00                  E13/UZF-1                 38    
    106                 E13/WEL-1                 2       0.00       0.00                  E13/UZF-1                 39    
    107                 E13/WEL-1                 3       0.00       0.00                  E13/UZF-1                 48    
    108                 E13/WEL-1                 4       0.00       0.00                  E13/UZF-1                 49    
    109                 E13/WEL-1                 5       0.00       0.00                  E13/UZF-1                 56    
    110                 E13/WEL-1                 6       0.00       0.00                  E13/UZF-1                 57    
    111                 E13/WEL-1                 7       0.00       0.00                  E13/UZF-1                 64    
    112                 E13/WEL-1                 8       0.00       0.00                  E13/UZF-1                 65    
    113                 E13/WEL-1                 9       0.00       0.00                  E13/UZF-1                 72    
    114                 E13/WEL-1                 10      0.00       0.00                  E13/UZF-1                 73    
 --------------------------------------------------------------------------------------------------------------------------



 SFR PACKAGE (SFR-1) STAGES FOR EACH CONTROL VOLUME   PERIOD     13   STEP       15
 ------------------------------------------------------------------------------------------------------------------------------------------------------
                                                                                                                               STREAMBED    STREAMBED  
 NAME                                       NUMBER   CELLID                  STAGE        DEPTH        WIDTH       GWF HEAD   CONDUCTANCE    GRADIENT  
 ------------------------------------------------------------------------------------------------------------------------------------------------------
 ALLREACHES                                   1      (1,1,1)               1094.3       1.2349       12.000       1019.5       5.40000E-02  1.4116     
 ALLREACHES                                   2      (1,2,2)               1089.3       1.2262       12.000       1019.9       8.40000E-02  1.4087     
 ALLREACHES                                   3      (1,3,3)               1083.6       1.2163       12.000       1019.9       7.20000E-02  1.4054     
 ALLREACHES                                   4      (1,3,4)               1078.6       1.2075       12.000       1020.0       6.66000E-02  1.4025     
 ALLREACHES                                   5      (1,4,5)               1072.8       0.84113      12.000       1020.0       7.80000E-02  1.2804     
 ALLREACHES                                   6      (1,5,6)               1067.3       0.83133      12.000       1019.7       6.00000E-02  1.2771     
 ALLREACHES                                   7      (1,6,6)               1062.6       0.82276      12.000       1019.1       6.00000E-02  1.2743     
 ALLREACHES                                   8      (1,7,6)               1057.9       0.81415      12.000       1018.7       6.00000E-02  1.2714     
 ALLREACHES                                   9      (1,8,6)               1053.2       0.80551      12.000       1018.6       6.00000E-02  1.2685     
 ALLREACHES                                   10     (1,3,5)               1074.6       0.93630      9.6364       1019.5       7.22727E-03  1.4681     
 ALLREACHES                                   11     (1,3,6)               1071.9       0.98022      8.9091       1019.9       6.68182E-03  1.4901     
 ALLREACHES                                   12     (1,3,7)               1069.3       1.0277       8.2182       1020.0       5.54727E-03  1.5139     
 ALLREACHES                                   13     (1,4,8)               1066.5       1.0884       7.4545       1019.4       6.70909E-03  1.5442     
 ALLREACHES                                   14     (1,5,8)               1063.6       1.1639       6.6545       1018.6       4.99091E-03  1.5819     
 ALLREACHES                                   15     (1,6,8)               1061.8       1.2200       6.1455       1019.2       1.84364E-03  1.6100     
 ALLREACHES                                   16     (1,5,10)              1078.4       0.63679      10.000       1019.1       2.50000E-02  1.2123     
 ALLREACHES                                   17     (1,5,9)               1071.5       0.63155      10.000       1019.5       5.00000E-02  1.2105     
 ALLREACHES                                   18     (1,6,8)               1063.8       0.62558      10.000       1019.2       3.50000E-02  1.2085     
 ALLREACHES                                   19     (1,6,8)               1060.0       1.2846       10.000       1019.2       4.00000E-02  1.4282     
 ALLREACHES                                   20     (1,7,7)               1056.9       1.2770       10.000       1018.9       5.00000E-02  1.4257     
 ALLREACHES                                   21     (1,8,7)               1054.1       1.2697       10.000       1018.7       3.50000E-02  1.4232     
 ALLREACHES                                   22     (1,8,6)               1052.1       1.2646       10.000       1018.6       2.50000E-02  1.4215     
 ALLREACHES                                   23     (1,9,6)               1046.6       1.1396       12.000       1018.2       6.00000E-02  1.3799     
 ALLREACHES                                   24     (1,12,7)              1037.7       1.2560       12.000       1019.9       6.00000E-03  1.4187     
 ALLREACHES                                   25     (1,13,7)              1030.2       1.2554       12.000       1023.0       6.60000E-03  1.4185     
 ALLREACHES                                   26     (1,14,9)              1034.8       1.4870       60.000       1027.2       0.60000      1.4957     
 ALLREACHES                                   27     (1,13,8)              1031.5       1.4708       60.000       1024.6       0.60000      1.4903     
 ALLREACHES                                   28     (1,13,7)              1028.1       1.4546       60.000       1023.0       0.60000      1.4849     
 ALLREACHES                                   29     (1,13,6)              1013.9       0.90948      60.000       1017.3       0.60000     -1.1352     
 ALLREACHES                                   30     (1,13,2)              998.30       1.4262       60.000       1003.6       0.60000     -1.7679     
 ALLREACHES                                   31     (1,13,1)              993.34       1.4644       60.000       997.01       0.36000     -1.2222     
 ------------------------------------------------------------------------------------------------------------------------------------------------------



 LAK PACKAGE (LAK-1) STAGES FOR EACH CONTROL VOLUME   PERIOD     13   STEP       15
 --------------------------------------------------------------
   NUMBER      STAGE     SURFACE AREA WETTED AREA     VOLUME   
 --------------------------------------------------------------
     1       1041.3       1.00000E+08  1.01383E+08  4.27567E+09
     2       1001.4       3.00000E+08  3.01461E+08  5.30072E+09
 --------------------------------------------------------------



 HEAD WILL BE SAVED ON UNIT 1026 AT END OF TIME STEP   15, STRESS PERIOD   13


  SFR-1 BUDGET FOR ENTIRE MODEL AT END OF TIME STEP   15, STRESS PERIOD  13
  ------------------------------------------------------------------------------

     CUMULATIVE SFR-1      L**3       RATES FOR THIS TIME STEP      L**3/T
     ------------------                 ------------------------

           IN:                                      IN:
           ---                                      ---
                 GWF =   204545050.5030                   GWF =           6.5454
            RAINFALL =           0.0000              RAINFALL =           0.0000
         EVAPORATION =           0.0000           EVAPORATION =           0.0000
              RUNOFF =           0.0000                RUNOFF =           0.0000
          EXT-INFLOW =  6320340000.0000            EXT-INFLOW =         185.0000
         EXT-OUTFLOW =       1.2518E-02           EXT-OUTFLOW =           0.0000
             STORAGE =           0.0000               STORAGE =           0.0000
            FROM-MVR =  7710993188.1776              FROM-MVR =         227.4434
              TO-MVR =           0.0000                TO-MVR =           0.0000

            TOTAL IN = 14235878238.6932              TOTAL IN =         418.9889

          OUT:                                     OUT:
          ----                                     ----
                 GWF =   405661241.5999                   GWF =          11.8740
            RAINFALL =           0.0000              RAINFALL =           0.0000
         EVAPORATION =           0.0000           EVAPORATION =           0.0000
              RUNOFF =           0.0000                RUNOFF =           0.0000
          EXT-INFLOW =           0.0000            EXT-INFLOW =           0.0000
         EXT-OUTFLOW =  6742954735.5816           EXT-OUTFLOW =         199.0866
             STORAGE =           0.0000               STORAGE =           0.0000
            FROM-MVR =           0.0000              FROM-MVR =           0.0000
              TO-MVR =  7087262261.5116                TO-MVR =         208.0283

           TOTAL OUT = 14235878238.6932             TOTAL OUT =         418.9889

            IN - OUT =           0.0000              IN - OUT =       5.6843E-14

 PERCENT DISCREPANCY =           0.00     PERCENT DISCREPANCY =           0.00



  LAK-1 BUDGET FOR ENTIRE MODEL AT END OF TIME STEP   15, STRESS PERIOD  13
  ------------------------------------------------------------------------------

     CUMULATIVE LAK-1      L**3       RATES FOR THIS TIME STEP      L**3/T
     ------------------                 ------------------------

           IN:                                      IN:
           ---                                      ---
                 GWF =   261823024.7949                   GWF =           8.2979
            RAINFALL =   293810400.0000              RAINFALL =           8.6000
         EVAPORATION =           0.0000           EVAPORATION =           0.0000
              RUNOFF =   153738000.0000                RUNOFF =           4.5000
          EXT-INFLOW =           0.0000            EXT-INFLOW =           0.0000
          WITHDRAWAL =           0.0000            WITHDRAWAL =           0.0000
         EXT-OUTFLOW =           1.1585           EXT-OUTFLOW =       4.2714E-08
             STORAGE =      299238.6692               STORAGE =       5.4613E-03
            CONSTANT =           0.0000              CONSTANT =           0.0000
            FROM-MVR =  7087262261.5116              FROM-MVR =         208.0283
              TO-MVR =           0.0000                TO-MVR =           0.0000

            TOTAL IN =  7796932926.1342              TOTAL IN =         229.4317

          OUT:                                     OUT:
          ----                                     ----
                 GWF =   138195116.5717                   GWF =           3.8414
            RAINFALL =           0.0000              RAINFALL =           0.0000
         EVAPORATION =   146905200.0000           EVAPORATION =           4.3000
              RUNOFF =           0.0000                RUNOFF =           0.0000
          EXT-INFLOW =           0.0000            EXT-INFLOW =           0.0000
          WITHDRAWAL =     4099680.0000            WITHDRAWAL =           0.1200
         EXT-OUTFLOW =           2.1955           EXT-OUTFLOW =           0.0000
             STORAGE =     3400778.1129               STORAGE =       2.6662E-02
            CONSTANT =           0.0000              CONSTANT =           0.0000
            FROM-MVR =           0.0000              FROM-MVR =           0.0000
              TO-MVR =  7504332150.6935                TO-MVR =         221.1437

           TOTAL OUT =  7796932927.5735             TOTAL OUT =         229.4317

            IN - OUT =          -1.4393              IN - OUT =      -2.0652E-07

 PERCENT DISCREPANCY =          -0.00     PERCENT DISCREPANCY =          -0.00



  UZF-1 BUDGET FOR ENTIRE MODEL AT END OF TIME STEP   15, STRESS PERIOD  13
  ------------------------------------------------------------------------------

     CUMULATIVE UZF-1      L**3       RATES FOR THIS TIME STEP      L**3/T
     ------------------                 ------------------------

           IN:                                      IN:
           ---                                      ---
                 GWF =           0.0000                   GWF =           0.0000
        INFILTRATION =  3029073271.2000          INFILTRATION =           2.5577
             REJ-INF =           0.0000               REJ-INF =           0.0000
                UZET =           0.0000                  UZET =           0.0000
             STORAGE =  1495455844.1029               STORAGE =          56.8652
            FROM-MVR =   201042000.0000              FROM-MVR =           0.0000
      REJ-INF-TO-MVR =           0.0000        REJ-INF-TO-MVR =           0.0000

            TOTAL IN =  4725571115.3029              TOTAL IN =          59.4229

          OUT:                                     OUT:
          ----                                     ----
                 GWF =   771454093.0406                   GWF =          35.8696
        INFILTRATION =           0.0000          INFILTRATION =           0.0000
             REJ-INF =          11.4197               REJ-INF =       3.9962E-11
                UZET =   705773593.0807                  UZET =          21.5277
             STORAGE =  3238444481.2425               STORAGE =           2.0172
            FROM-MVR =           0.0000              FROM-MVR =           0.0000
      REJ-INF-TO-MVR =     9898877.4829        REJ-INF-TO-MVR =       8.3500E-03

           TOTAL OUT =  4725571056.2665             TOTAL OUT =          59.4229

            IN - OUT =          59.0364              IN - OUT =       2.0703E-06

 PERCENT DISCREPANCY =           0.00     PERCENT DISCREPANCY =           0.00



  WATER MOVER BUDGET FOR ENTIRE MODEL AT END OF TIME STEP   15, STRESS PERIOD  13
  ------------------------------------------------------------------------------

     CUMULATIVE WATER MOVER      L**3       RATES FOR THIS TIME STEP      L**3/T
     ------------------                 ------------------------

           IN:                                      IN:
           ---                                      ---
               UZF-1 =   206661037.4842                 UZF-1 =           6.2998
               SFR-1 =  7087262261.5116                 SFR-1 =         208.0283
               LAK-1 =  7504332150.6935                 LAK-1 =         221.1437
               WEL-1 =   201042000.0000                 WEL-1 =           0.0000

            TOTAL IN = 14999297449.6893              TOTAL IN =         435.4718

          OUT:                                     OUT:
          ----                                     ----
               UZF-1 =   201042000.0000                 UZF-1 =           0.0000
               SFR-1 =  7710993188.1776                 SFR-1 =         227.4434
               LAK-1 =  7087262261.5116                 LAK-1 =         208.0283
               WEL-1 =           0.0000                 WEL-1 =           0.0000

           TOTAL OUT = 14999297449.6893             TOTAL OUT =         435.4718

            IN - OUT =       1.9073E-06              IN - OUT =           0.0000

 PERCENT DISCREPANCY =           0.00     PERCENT DISCREPANCY =           0.00



  VOLUME BUDGET FOR ENTIRE MODEL AT END OF TIME STEP   15, STRESS PERIOD  13
  ---------------------------------------------------------------------------------------------------

     CUMULATIVE VOLUME      L**3       RATES FOR THIS TIME STEP      L**3/T          PACKAGE NAME    
     ------------------                 ------------------------                     ----------------

           IN:                                      IN:
           ---                                      ---
              STO-SS =      792237.9463                STO-SS =       1.3375E-02     STORAGE                          
              STO-SY =   246704894.0865                STO-SY =           3.5031     STORAGE                          
                 WEL =           0.0000                   WEL =           0.0000     WEL-1                            
          WEL-TO-MVR =           0.0000            WEL-TO-MVR =           0.0000     WEL-1                            
                 GHB =    24048955.9357                   GHB =           0.6746     GHB_0                            
                 SFR =   405661241.5999                   SFR =          11.8740     SFR-1                            
                 LAK =   138195116.5717                   LAK =           3.8414     LAK-1                            
           UZF-GWRCH =   771454093.0406             UZF-GWRCH =          35.8696     UZF-1                            
             UZF-GWD =           0.0000               UZF-GWD =           0.0000     UZF-1                            
      UZF-GWD TO-MVR =           0.0000        UZF-GWD TO-MVR =           0.0000     UZF-1                            
            UZF-GWET =           0.0000              UZF-GWET =           0.0000     UZF-1                            

            TOTAL IN =  1586856539.1806              TOTAL IN =          55.7761

          OUT:                                     OUT:
          ----                                     ----
              STO-SS =     3480356.7587                STO-SS =           0.1195     STORAGE                          
              STO-SY =   688370400.2727                STO-SY =          33.5879     STORAGE                          
                 WEL =           0.0000                   WEL =           0.0000     WEL-1                            
          WEL-TO-MVR =   201042000.0000            WEL-TO-MVR =           0.0000     WEL-1                            
                 GHB =    11689309.3337                   GHB =           0.3422     GHB_0                            
                 SFR =   204545289.3667                   SFR =           6.5454     SFR-1                            
                 LAK =   261823024.7949                   LAK =           8.2979     LAK-1                            
           UZF-GWRCH =           0.0000             UZF-GWRCH =           0.0000     UZF-1                            
             UZF-GWD =          88.0007               UZF-GWD =       3.0110E-08     UZF-1                            
      UZF-GWD TO-MVR =   196762160.0012        UZF-GWD TO-MVR =           6.2914     UZF-1                            
            UZF-GWET =    19135185.5265              UZF-GWET =           0.5916     UZF-1                            

           TOTAL OUT =  1586847814.0551             TOTAL OUT =          55.7760

            IN - OUT =        8725.1256              IN - OUT =       8.0968E-06

 PERCENT DISCREPANCY =           0.00     PERCENT DISCREPANCY =           0.00




         TIME SUMMARY AT END OF TIME STEP   15 IN STRESS PERIOD   13
                    SECONDS     MINUTES      HOURS       DAYS        YEARS
                    -----------------------------------------------------------
   TIME STEP LENGTH 1.75200E+05  2920.0      48.667      2.0278     5.55175E-03
 STRESS PERIOD TIME 2.62800E+06  43800.      730.00      30.417     8.32763E-02
         TOTAL TIME 3.41640E+07 5.69400E+05  9490.0      395.42      1.0826    


end timestep


start timestep kper="14" kstp="1" mode="normal"


 OUTPUT CONTROL FOR STRESS PERIOD 14 IS REPEATED USING SETTINGS FROM A PREVIOUS STRESS PERIOD.


 STRESS PERIOD 14 IS TRANSIENT


 REUSING MVRS FROM LAST STRESS PERIOD

 REUSING SFRS FROM LAST STRESS PERIOD

 REUSING LAKS FROM LAST STRESS PERIOD

end timestep


start timestep kper="14" kstp="2" mode="normal"


end timestep


start timestep kper="14" kstp="3" mode="normal"


end timestep


start timestep kper="14" kstp="4" mode="normal"


end timestep


start timestep kper="14" kstp="5" mode="normal"


end timestep


start timestep kper="14" kstp="6" mode="normal"


end timestep


start timestep kper="14" kstp="7" mode="normal"


end timestep


start timestep kper="14" kstp="8" mode="normal"


end timestep


start timestep kper="14" kstp="9" mode="normal"


end timestep


start timestep kper="14" kstp="10" mode="normal"


end timestep


start timestep kper="14" kstp="11" mode="normal"


end timestep


start timestep kper="14" kstp="12" mode="normal"


end timestep


start timestep kper="14" kstp="13" mode="normal"


end timestep


start timestep kper="14" kstp="14" mode="normal"


end timestep


start timestep kper="14" kstp="15" mode="normal"

 UBDSV1 SAVING           STO-SS ON UNIT   1025 AT TIME STEP     15, STRESS PERIOD     14
 UBDSV1 SAVING           STO-SY ON UNIT   1025 AT TIME STEP     15, STRESS PERIOD     14
 UBDSV1 SAVING     FLOW-JA-FACE ON UNIT   1025 AT TIME STEP     15, STRESS PERIOD     14
 UBDSV06 SAVING       DATA-SPDIS IN MODEL E13              PACKAGE NPF             CONNECTED TO MODEL E13              PACKAGE NPF              ON UNIT   1025 AT TIME STEP     15, STRESS PERIOD     14
 UBDSV06 SAVING              WEL IN MODEL E13              PACKAGE E13             CONNECTED TO MODEL E13              PACKAGE WEL-1            ON UNIT   1025 AT TIME STEP     15, STRESS PERIOD     14
 UBDSV06 SAVING       WEL-TO-MVR IN MODEL E13              PACKAGE E13             CONNECTED TO MODEL E13              PACKAGE WEL-1            ON UNIT   1025 AT TIME STEP     15, STRESS PERIOD     14
 UBDSV06 SAVING              GHB IN MODEL E13              PACKAGE E13             CONNECTED TO MODEL E13              PACKAGE GHB_0            ON UNIT   1025 AT TIME STEP     15, STRESS PERIOD     14
 UBDSV06 SAVING              SFR IN MODEL E13              PACKAGE E13             CONNECTED TO MODEL E13              PACKAGE SFR-1            ON UNIT   1025 AT TIME STEP     15, STRESS PERIOD     14
 UBDSV06 SAVING              LAK IN MODEL E13              PACKAGE E13             CONNECTED TO MODEL E13              PACKAGE LAK-1            ON UNIT   1025 AT TIME STEP     15, STRESS PERIOD     14
 UBDSV06 SAVING        UZF-GWRCH IN MODEL E13              PACKAGE E13             CONNECTED TO MODEL E13              PACKAGE UZF-1            ON UNIT   1025 AT TIME STEP     15, STRESS PERIOD     14
 UBDSV06 SAVING          UZF-GWD IN MODEL E13              PACKAGE E13             CONNECTED TO MODEL E13              PACKAGE UZF-1            ON UNIT   1025 AT TIME STEP     15, STRESS PERIOD     14
 UBDSV06 SAVING   UZF-GWD TO-MVR IN MODEL E13              PACKAGE E13             CONNECTED TO MODEL E13              PACKAGE UZF-1            ON UNIT   1025 AT TIME STEP     15, STRESS PERIOD     14
 UBDSV06 SAVING         UZF-GWET IN MODEL E13              PACKAGE E13             CONNECTED TO MODEL E13              PACKAGE UZF-1            ON UNIT   1025 AT TIME STEP     15, STRESS PERIOD     14
 UBDSV06 SAVING     FLOW-JA-FACE IN MODEL E13              PACKAGE SFR-1           CONNECTED TO MODEL E13              PACKAGE SFR-1            ON UNIT   1017 AT TIME STEP     15, STRESS PERIOD     14
 UBDSV06 SAVING              GWF IN MODEL E13              PACKAGE SFR-1           CONNECTED TO MODEL E13              PACKAGE E13              ON UNIT   1017 AT TIME STEP     15, STRESS PERIOD     14
 UBDSV06 SAVING         RAINFALL IN MODEL E13              PACKAGE SFR-1           CONNECTED TO MODEL E13              PACKAGE SFR-1            ON UNIT   1017 AT TIME STEP     15, STRESS PERIOD     14
 UBDSV06 SAVING      EVAPORATION IN MODEL E13              PACKAGE SFR-1           CONNECTED TO MODEL E13              PACKAGE SFR-1            ON UNIT   1017 AT TIME STEP     15, STRESS PERIOD     14
 UBDSV06 SAVING           RUNOFF IN MODEL E13              PACKAGE SFR-1           CONNECTED TO MODEL E13              PACKAGE SFR-1            ON UNIT   1017 AT TIME STEP     15, STRESS PERIOD     14
 UBDSV06 SAVING       EXT-INFLOW IN MODEL E13              PACKAGE SFR-1           CONNECTED TO MODEL E13              PACKAGE SFR-1            ON UNIT   1017 AT TIME STEP     15, STRESS PERIOD     14
 UBDSV06 SAVING      EXT-OUTFLOW IN MODEL E13              PACKAGE SFR-1           CONNECTED TO MODEL E13              PACKAGE SFR-1            ON UNIT   1017 AT TIME STEP     15, STRESS PERIOD     14
 UBDSV06 SAVING          STORAGE IN MODEL E13              PACKAGE SFR-1           CONNECTED TO MODEL E13              PACKAGE SFR-1            ON UNIT   1017 AT TIME STEP     15, STRESS PERIOD     14
 UBDSV06 SAVING         FROM-MVR IN MODEL E13              PACKAGE SFR-1           CONNECTED TO MODEL E13              PACKAGE SFR-1            ON UNIT   1017 AT TIME STEP     15, STRESS PERIOD     14
 UBDSV06 SAVING           TO-MVR IN MODEL E13              PACKAGE SFR-1           CONNECTED TO MODEL E13              PACKAGE SFR-1            ON UNIT   1017 AT TIME STEP     15, STRESS PERIOD     14
 UBDSV06 SAVING              GWF IN MODEL E13              PACKAGE LAK-1           CONNECTED TO MODEL E13              PACKAGE E13              ON UNIT   1019 AT TIME STEP     15, STRESS PERIOD     14
 UBDSV06 SAVING         RAINFALL IN MODEL E13              PACKAGE LAK-1           CONNECTED TO MODEL E13              PACKAGE LAK-1            ON UNIT   1019 AT TIME STEP     15, STRESS PERIOD     14
 UBDSV06 SAVING      EVAPORATION IN MODEL E13              PACKAGE LAK-1           CONNECTED TO MODEL E13              PACKAGE LAK-1            ON UNIT   1019 AT TIME STEP     15, STRESS PERIOD     14
 UBDSV06 SAVING           RUNOFF IN MODEL E13              PACKAGE LAK-1           CONNECTED TO MODEL E13              PACKAGE LAK-1            ON UNIT   1019 AT TIME STEP     15, STRESS PERIOD     14
 UBDSV06 SAVING       EXT-INFLOW IN MODEL E13              PACKAGE LAK-1           CONNECTED TO MODEL E13              PACKAGE LAK-1            ON UNIT   1019 AT TIME STEP     15, STRESS PERIOD     14
 UBDSV06 SAVING       WITHDRAWAL IN MODEL E13              PACKAGE LAK-1           CONNECTED TO MODEL E13              PACKAGE LAK-1            ON UNIT   1019 AT TIME STEP     15, STRESS PERIOD     14
 UBDSV06 SAVING      EXT-OUTFLOW IN MODEL E13              PACKAGE LAK-1           CONNECTED TO MODEL E13              PACKAGE LAK-1            ON UNIT   1019 AT TIME STEP     15, STRESS PERIOD     14
 UBDSV06 SAVING          STORAGE IN MODEL E13              PACKAGE LAK-1           CONNECTED TO MODEL E13              PACKAGE LAK-1            ON UNIT   1019 AT TIME STEP     15, STRESS PERIOD     14
 UBDSV06 SAVING         CONSTANT IN MODEL E13              PACKAGE LAK-1           CONNECTED TO MODEL E13              PACKAGE LAK-1            ON UNIT   1019 AT TIME STEP     15, STRESS PERIOD     14
 UBDSV06 SAVING         FROM-MVR IN MODEL E13              PACKAGE LAK-1           CONNECTED TO MODEL E13              PACKAGE LAK-1            ON UNIT   1019 AT TIME STEP     15, STRESS PERIOD     14
 UBDSV06 SAVING           TO-MVR IN MODEL E13              PACKAGE LAK-1           CONNECTED TO MODEL E13              PACKAGE LAK-1            ON UNIT   1019 AT TIME STEP     15, STRESS PERIOD     14
 UBDSV06 SAVING     FLOW-JA-FACE IN MODEL E13              PACKAGE UZF-1           CONNECTED TO MODEL E13              PACKAGE UZF-1            ON UNIT   1021 AT TIME STEP     15, STRESS PERIOD     14
 UBDSV06 SAVING              GWF IN MODEL E13              PACKAGE UZF-1           CONNECTED TO MODEL E13              PACKAGE E13              ON UNIT   1021 AT TIME STEP     15, STRESS PERIOD     14
 UBDSV06 SAVING     INFILTRATION IN MODEL E13              PACKAGE UZF-1           CONNECTED TO MODEL E13              PACKAGE UZF-1            ON UNIT   1021 AT TIME STEP     15, STRESS PERIOD     14
 UBDSV06 SAVING          REJ-INF IN MODEL E13              PACKAGE UZF-1           CONNECTED TO MODEL E13              PACKAGE UZF-1            ON UNIT   1021 AT TIME STEP     15, STRESS PERIOD     14
 UBDSV06 SAVING             UZET IN MODEL E13              PACKAGE UZF-1           CONNECTED TO MODEL E13              PACKAGE UZF-1            ON UNIT   1021 AT TIME STEP     15, STRESS PERIOD     14
 UBDSV06 SAVING          STORAGE IN MODEL E13              PACKAGE UZF-1           CONNECTED TO MODEL E13              PACKAGE UZF-1            ON UNIT   1021 AT TIME STEP     15, STRESS PERIOD     14
 UBDSV06 SAVING         FROM-MVR IN MODEL E13              PACKAGE UZF-1           CONNECTED TO MODEL E13              PACKAGE UZF-1            ON UNIT   1021 AT TIME STEP     15, STRESS PERIOD     14
 UBDSV06 SAVING   REJ-INF-TO-MVR IN MODEL E13              PACKAGE UZF-1           CONNECTED TO MODEL E13              PACKAGE UZF-1            ON UNIT   1021 AT TIME STEP     15, STRESS PERIOD     14
 UBDSV06 SAVING       MOVER-FLOW IN MODEL E13              PACKAGE UZF-1           CONNECTED TO MODEL E13              PACKAGE UZF-1            ON UNIT   1023 AT TIME STEP     15, STRESS PERIOD     14
 UBDSV06 SAVING       MOVER-FLOW IN MODEL E13              PACKAGE UZF-1           CONNECTED TO MODEL E13              PACKAGE SFR-1            ON UNIT   1023 AT TIME STEP     15, STRESS PERIOD     14
 UBDSV06 SAVING       MOVER-FLOW IN MODEL E13              PACKAGE UZF-1           CONNECTED TO MODEL E13              PACKAGE LAK-1            ON UNIT   1023 AT TIME STEP     15, STRESS PERIOD     14
 UBDSV06 SAVING       MOVER-FLOW IN MODEL E13              PACKAGE UZF-1           CONNECTED TO MODEL E13              PACKAGE WEL-1            ON UNIT   1023 AT TIME STEP     15, STRESS PERIOD     14
 UBDSV06 SAVING       MOVER-FLOW IN MODEL E13              PACKAGE SFR-1           CONNECTED TO MODEL E13              PACKAGE UZF-1            ON UNIT   1023 AT TIME STEP     15, STRESS PERIOD     14
 UBDSV06 SAVING       MOVER-FLOW IN MODEL E13              PACKAGE SFR-1           CONNECTED TO MODEL E13              PACKAGE SFR-1            ON UNIT   1023 AT TIME STEP     15, STRESS PERIOD     14
 UBDSV06 SAVING       MOVER-FLOW IN MODEL E13              PACKAGE SFR-1           CONNECTED TO MODEL E13              PACKAGE LAK-1            ON UNIT   1023 AT TIME STEP     15, STRESS PERIOD     14
 UBDSV06 SAVING       MOVER-FLOW IN MODEL E13              PACKAGE SFR-1           CONNECTED TO MODEL E13              PACKAGE WEL-1            ON UNIT   1023 AT TIME STEP     15, STRESS PERIOD     14
 UBDSV06 SAVING       MOVER-FLOW IN MODEL E13              PACKAGE LAK-1           CONNECTED TO MODEL E13              PACKAGE UZF-1            ON UNIT   1023 AT TIME STEP     15, STRESS PERIOD     14
 UBDSV06 SAVING       MOVER-FLOW IN MODEL E13              PACKAGE LAK-1           CONNECTED TO MODEL E13              PACKAGE SFR-1            ON UNIT   1023 AT TIME STEP     15, STRESS PERIOD     14
 UBDSV06 SAVING       MOVER-FLOW IN MODEL E13              PACKAGE LAK-1           CONNECTED TO MODEL E13              PACKAGE LAK-1            ON UNIT   1023 AT TIME STEP     15, STRESS PERIOD     14
 UBDSV06 SAVING       MOVER-FLOW IN MODEL E13              PACKAGE LAK-1           CONNECTED TO MODEL E13              PACKAGE WEL-1            ON UNIT   1023 AT TIME STEP     15, STRESS PERIOD     14
 UBDSV06 SAVING       MOVER-FLOW IN MODEL E13              PACKAGE WEL-1           CONNECTED TO MODEL E13              PACKAGE UZF-1            ON UNIT   1023 AT TIME STEP     15, STRESS PERIOD     14
 UBDSV06 SAVING       MOVER-FLOW IN MODEL E13              PACKAGE WEL-1           CONNECTED TO MODEL E13              PACKAGE SFR-1            ON UNIT   1023 AT TIME STEP     15, STRESS PERIOD     14
 UBDSV06 SAVING       MOVER-FLOW IN MODEL E13              PACKAGE WEL-1           CONNECTED TO MODEL E13              PACKAGE LAK-1            ON UNIT   1023 AT TIME STEP     15, STRESS PERIOD     14
 UBDSV06 SAVING       MOVER-FLOW IN MODEL E13              PACKAGE WEL-1           CONNECTED TO MODEL E13              PACKAGE WEL-1            ON UNIT   1023 AT TIME STEP     15, STRESS PERIOD     14

 WEL PACKAGE (WEL-1) FLOW RATES   PERIOD     14   STEP       15
 -----------------------------------------------
   NUMBER   CELLID                    RATE      
 -----------------------------------------------
     1      (1,6,4)               0.0000000     
     2      (1,6,5)               0.0000000     
     3      (1,7,4)               0.0000000     
     4      (1,7,5)               0.0000000     
     5      (1,8,4)               0.0000000     
     6      (1,8,5)               0.0000000     
     7      (1,9,4)               0.0000000     
     8      (1,9,5)               0.0000000     
     9      (1,10,4)              0.0000000     
     10     (1,10,5)              0.0000000     
 -----------------------------------------------




 WEL PACKAGE (WEL-1) FLOW RATES TO-MVR   PERIOD     14   STEP       15
 -----------------------------------------------
   NUMBER   CELLID                    RATE      
 -----------------------------------------------
     1      (1,6,4)               0.0000000     
     2      (1,6,5)               0.0000000     
     3      (1,7,4)               0.0000000     
     4      (1,7,5)               0.0000000     
     5      (1,8,4)               0.0000000     
     6      (1,8,5)               0.0000000     
     7      (1,9,4)               0.0000000     
     8      (1,9,5)               0.0000000     
     9      (1,10,4)              0.0000000     
     10     (1,10,5)              0.0000000     
 -----------------------------------------------




 SFR PACKAGE (SFR-1) FLOW RATES   PERIOD     14   STEP       15
 ----------------------------------------------------------------------------------------
   NUMBER   CELLID                    RATE       NAME                                    
 ----------------------------------------------------------------------------------------
     1      (1,1,1)               0.22868377     ALLREACHES                              
     2      (1,2,2)               0.35499870     ALLREACHES                              
     3      (1,3,3)               0.30357347     ALLREACHES                              
     4      (1,3,4)               0.28021936     ALLREACHES                              
     5      (1,4,5)               0.29960805     ALLREACHES                              
     6      (1,5,6)               0.22987955     ALLREACHES                              
     7      (1,6,6)               0.22936563     ALLREACHES                              
     8      (1,7,6)               0.22884928     ALLREACHES                              
     9      (1,8,6)               0.22833044     ALLREACHES                              
     10     (1,3,5)               2.12214188E-02 ALLREACHES                              
     11     (1,3,6)               1.99133007E-02 ALLREACHES                              
     12     (1,3,7)               1.67956407E-02 ALLREACHES                              
     13     (1,4,8)               2.07205450E-02 ALLREACHES                              
     14     (1,5,8)               1.57905563E-02 ALLREACHES                              
     15     (1,6,8)               5.93648362E-03 ALLREACHES                              
     16     (1,5,10)              9.09197693E-02 ALLREACHES                              
     17     (1,5,9)               0.18157734     ALLREACHES                              
     18     (1,6,8)               0.12689514     ALLREACHES                              
     19     (1,6,8)               0.17138468     ALLREACHES                              
     20     (1,7,7)               0.21384773     ALLREACHES                              
     21     (1,8,7)               0.14943953     ALLREACHES                              
     22     (1,8,6)               0.10661428     ALLREACHES                              
     23     (1,9,6)               0.24837387     ALLREACHES                              
     24     (1,12,7)              2.55393435E-02 ALLREACHES                              
     25     (1,13,7)              2.80892181E-02 ALLREACHES                              
     26     (1,14,9)              2.6922030      ALLREACHES                              
     27     (1,13,8)              2.6824902      ALLREACHES                              
     28     (1,13,7)              2.6727412      ALLREACHES                              
     29     (1,13,6)             -2.0270756      ALLREACHES                              
     30     (1,13,2)             -3.3589769      ALLREACHES                              
     31     (1,13,1)             -1.3172172      ALLREACHES                              
 ----------------------------------------------------------------------------------------




 LAK PACKAGE (LAK-1) FLOW RATES   PERIOD     14   STEP       15
 -----------------------------------------------
   NUMBER   CELLID                    RATE      
 -----------------------------------------------
     1      (1,9,7)               8.23545586E-03
     2      (1,10,6)              1.06146728E-02
     3      (2,10,7)              0.95603933    
     4      (1,9,8)               5.77540814E-03
     5      (1,10,9)              1.05568747E-04
     6      (2,10,8)              0.93033681    
     7      (1,11,6)              1.14118785E-02
     8      (1,12,7)              1.06248377E-02
     9      (2,11,7)              0.95370174    
     10     (1,11,9)              2.62983380E-03
     11     (1,12,8)              1.02338599E-02
     12     (2,11,8)              0.92700792    
     13     (1,10,3)             -8.49615150E-04
     14     (1,11,2)             -1.24793464E-03
     15     (2,11,3)             -0.67683253    
     16     (1,10,4)             -1.20811548E-03
     17     (2,11,4)             -0.69629570    
     18     (1,10,5)             -3.06778473E-03
     19     (1,11,6)             -4.33494642E-03
     20     (2,11,5)             -0.72276609    
     21     (1,12,2)             -4.25337319E-03
     22     (2,12,3)             -0.64848036    
     23     (2,12,4)             -0.68208813    
     24     (1,12,6)             -5.97202858E-03
     25     (2,12,5)             -0.71663672    
     26     (1,13,2)             -1.23795019E-03
     27     (2,13,3)             -0.63828941    
     28     (2,13,4)             -0.68022660    
     29     (1,13,6)             -6.38690473E-03
     30     (2,13,5)             -0.71784121    
     31     (1,14,2)             -4.23913710E-03
     32     (1,15,3)              0.0000000     
     33     (2,14,3)             -0.65431003    
     34     (1,15,4)              0.0000000     
     35     (2,14,4)             -0.68886835    
     36     (1,14,6)             -3.67441136E-03
     37     (1,15,5)              0.0000000     
     38     (2,14,5)             -0.72254420    
 -----------------------------------------------




 SFR-1 PACKAGE - SUMMARY OF FLOWS FOR EACH CONTROL VOLUME   PERIOD     14   STEP       15
 --------------------------------------------------------------------------------------------------------------------------------------------------------------------------------------------------------
                                                                                                                                                                                               PERCENT   
   NUMBER   CELLID                  INFLOW      OUTFLOW        GWF        RAINFALL   EVAPORATION     RUNOFF     EXT INFLOW  EXT OUTFLOW    STORAGE      FROM MVR      TO MVR      IN - OUT    DIFFERENCE 
 --------------------------------------------------------------------------------------------------------------------------------------------------------------------------------------------------------
     1      (1,1,1)               0.0000      -24.771      -0.22868      0.0000       0.0000       0.0000       25.000       0.0000       0.0000       0.0000       0.0000       0.0000       0.0000     
     2      (1,2,2)               24.771      -24.416      -0.35500      0.0000       0.0000       0.0000       0.0000       0.0000       0.0000       0.0000       0.0000       0.0000       0.0000     
     3      (1,3,3)               24.416      -24.113      -0.30357      0.0000       0.0000       0.0000       0.0000       0.0000       0.0000       0.0000       0.0000       0.0000       0.0000     
     4      (1,3,4)               24.113      -23.833      -0.28022      0.0000       0.0000       0.0000       0.0000       0.0000       0.0000       0.0000       0.0000       0.0000       0.0000     
     5      (1,4,5)               13.833      -13.533      -0.29961      0.0000       0.0000       0.0000       0.0000       0.0000       0.0000       0.0000       0.0000       0.0000       0.0000     
     6      (1,5,6)               13.533      -13.303      -0.22988      0.0000       0.0000       0.0000       0.0000       0.0000       0.0000       0.0000       0.0000       0.0000       0.0000     
     7      (1,6,6)               13.303      -13.074      -0.22937      0.0000       0.0000       0.0000       0.0000       0.0000       0.0000       0.0000       0.0000       0.0000       0.0000     
     8      (1,7,6)               13.074      -12.845      -0.22885      0.0000       0.0000       0.0000       0.0000       0.0000       0.0000       0.0000       0.0000       0.0000       0.0000     
     9      (1,8,6)               12.845      -12.616      -0.22833      0.0000       0.0000       0.0000       0.0000       0.0000       0.0000       0.0000       0.0000       0.0000       0.0000     
     10     (1,3,5)               10.000      -9.9788      -2.12214E-02  0.0000       0.0000       0.0000       0.0000       0.0000       0.0000       0.0000       0.0000       0.0000       0.0000     
     11     (1,3,6)               9.9788      -9.9589      -1.99133E-02  0.0000       0.0000       0.0000       0.0000       0.0000       0.0000       0.0000       0.0000       0.0000       0.0000     
     12     (1,3,7)               9.9589      -9.9421      -1.67956E-02  0.0000       0.0000       0.0000       0.0000       0.0000       0.0000       0.0000       0.0000       0.0000       0.0000     
     13     (1,4,8)               9.9421      -9.9213      -2.07205E-02  0.0000       0.0000       0.0000       0.0000       0.0000       0.0000       0.0000       0.0000       0.0000       0.0000     
     14     (1,5,8)               9.9213      -9.9056      -1.57906E-02  0.0000       0.0000       0.0000       0.0000       0.0000       0.0000       0.0000       0.0000       0.0000       0.0000     
     15     (1,6,8)               9.9056      -9.8996      -5.93648E-03  0.0000       0.0000       0.0000       0.0000       0.0000       0.0000       0.0000       0.0000       0.0000       0.0000     
     16     (1,5,10)              0.0000      -9.9091      -9.09198E-02  0.0000       0.0000       0.0000       10.000       0.0000       0.0000       0.0000       0.0000       0.0000       0.0000     
     17     (1,5,9)               9.9091      -9.7275      -0.18158      0.0000       0.0000       0.0000       0.0000       0.0000       0.0000       0.0000       0.0000       0.0000       0.0000     
     18     (1,6,8)               9.7275      -9.6006      -0.12690      0.0000       0.0000       0.0000       0.0000       0.0000       0.0000       0.0000       0.0000       0.0000       0.0000     
     19     (1,6,8)               19.500      -19.329      -0.17138      0.0000       0.0000       0.0000       0.0000       0.0000       0.0000       0.0000       0.0000       0.0000       0.0000     
     20     (1,7,7)               19.329      -19.115      -0.21385      0.0000       0.0000       0.0000       0.0000       0.0000       0.0000       0.0000       0.0000       0.0000       0.0000     
     21     (1,8,7)               19.115      -18.966      -0.14944      0.0000       0.0000       0.0000       0.0000       0.0000       0.0000       0.0000       0.0000       0.0000       0.0000     
     22     (1,8,6)               18.966      -18.859      -0.10661      0.0000       0.0000       0.0000       0.0000       0.0000       0.0000       0.0000       0.0000       0.0000       0.0000     
     23     (1,9,6)               31.475       0.0000      -0.24837      0.0000       0.0000       0.0000       0.0000       0.0000       0.0000       0.0000      -31.227       0.0000       0.0000     
     24     (1,12,7)              0.0000      -32.858      -2.55393E-02  0.0000       0.0000       0.0000       0.0000       0.0000       0.0000       32.884       0.0000       0.0000       0.0000     
     25     (1,13,7)              32.858      -32.830      -2.80892E-02  0.0000       0.0000       0.0000       0.0000       0.0000       0.0000       0.0000       0.0000       0.0000       0.0000     
     26     (1,14,9)              0.0000      -147.31      -2.6922       0.0000       0.0000       0.0000       150.00       0.0000       0.0000       0.0000       0.0000       0.0000       0.0000     
     27     (1,13,8)              147.31      -144.63      -2.6825       0.0000       0.0000       0.0000       0.0000       0.0000       0.0000       0.0000       0.0000       0.0000       0.0000     
     28     (1,13,7)              144.63      -141.95      -2.6727       0.0000       0.0000       0.0000       0.0000       0.0000       0.0000       0.0000       0.0000       0.0000       0.0000     
     29     (1,13,6)              174.78       0.0000       2.0271       0.0000       0.0000       0.0000       0.0000      -1.41480E-09  0.0000       0.0000      -176.81       0.0000       0.0000     
     30     (1,13,2)              0.0000      -192.16       3.3590       0.0000       0.0000       0.0000       0.0000       0.0000       0.0000       188.80       0.0000       0.0000       0.0000     
     31     (1,13,1)              192.16       0.0000       1.3172       0.0000       0.0000       0.0000       0.0000      -200.85       0.0000       7.3727       0.0000       0.0000       0.0000     
 --------------------------------------------------------------------------------------------------------------------------------------------------------------------------------------------------------



 LAK-1 PACKAGE - SUMMARY OF FLOWS FOR EACH CONTROL VOLUME   PERIOD     14   STEP       15
 -----------------------------------------------------------------------------------------------------------------------------------------------------------------------------------
                                                                                                                                                                          PERCENT   
   NUMBER       GWF        RAINFALL   EVAPORATION     RUNOFF     EXT INFLOW   WITHDRAWAL  EXT OUTFLOW    STORAGE      CONSTANT     FROM MVR      TO MVR      IN - OUT    DIFFERENCE 
 -----------------------------------------------------------------------------------------------------------------------------------------------------------------------------------
     1      -3.8267       5.0000      -1.0000       1.5000       0.0000       0.0000       0.0000      -1.65826E-02  0.0000       31.227      -32.884       5.36247E-09  1.42138E-08
     2       8.2817       3.6000      -3.3000       3.0000       0.0000      -0.12000      5.17883E-09  4.76142E-03  0.0000       176.81      -188.28      -6.71945E-08 -3.50526E-08
 -----------------------------------------------------------------------------------------------------------------------------------------------------------------------------------



 WATER MOVER PACKAGE (MVR) FLOW RATES   PERIOD     14   STEP       15
 --------------------------------------------------------------------------------------------------------------------------
                                               PROVIDER  AVAILABLE   PROVIDED                                     RECEIVER 
   NUMBER           PROVIDER LOCATION             ID        RATE       RATE            RECEIVER LOCATION             ID    
 --------------------------------------------------------------------------------------------------------------------------
     1                  E13/SFR-1                 23      31.2       31.2                  E13/LAK-1                 1     
     2                  E13/LAK-1                 1       32.9       32.9                  E13/SFR-1                 24    
     3                  E13/SFR-1                 29      177.       177.                  E13/LAK-1                 2     
     4                  E13/LAK-1                 2       188.       188.                  E13/SFR-1                 30    
     5                  E13/UZF-1                 1       0.00       0.00                  E13/SFR-1                 1     
     6                  E13/UZF-1                 2       0.00       0.00                  E13/SFR-1                 2     
     7                  E13/UZF-1                 3       0.00       0.00                  E13/SFR-1                 2     
     8                  E13/UZF-1                 4       0.00       0.00                  E13/SFR-1                 2     
     9                  E13/UZF-1                 5       0.00       0.00                  E13/SFR-1                 3     
     10                 E13/UZF-1                 6       0.00       0.00                  E13/SFR-1                 11    
     11                 E13/UZF-1                 7       0.00       0.00                  E13/SFR-1                 12    
     12                 E13/UZF-1                 8       0.00       0.00                  E13/SFR-1                 12    
     13                 E13/UZF-1                 9       0.00       0.00                  E13/SFR-1                 2     
     14                 E13/UZF-1                 10      0.00       0.00                  E13/SFR-1                 3     
     15                 E13/UZF-1                 11      0.00       0.00                  E13/SFR-1                 4     
     16                 E13/UZF-1                 12      0.00       0.00                  E13/SFR-1                 10    
     17                 E13/UZF-1                 13      0.00       0.00                  E13/SFR-1                 11    
     18                 E13/UZF-1                 14      0.00       0.00                  E13/SFR-1                 12    
     19                 E13/UZF-1                 15      0.00       0.00                  E13/SFR-1                 13    
     20                 E13/UZF-1                 16      0.00       0.00                  E13/LAK-1                 2     
     21                 E13/UZF-1                 17      0.00       0.00                  E13/LAK-1                 2     
     22                 E13/UZF-1                 18      0.00       0.00                  E13/SFR-1                 3     
     23                 E13/UZF-1                 19      0.00       0.00                  E13/SFR-1                 4     
     24                 E13/UZF-1                 20      0.00       0.00                  E13/SFR-1                 5     
     25                 E13/UZF-1                 21      0.00       0.00                  E13/SFR-1                 6     
     26                 E13/UZF-1                 22      0.00       0.00                  E13/SFR-1                 6     
     27                 E13/UZF-1                 23      0.00       0.00                  E13/SFR-1                 13    
     28                 E13/UZF-1                 24      0.00       0.00                  E13/SFR-1                 17    
     29                 E13/UZF-1                 25      0.00       0.00                  E13/LAK-1                 2     
     30                 E13/UZF-1                 26      0.00       0.00                  E13/LAK-1                 2     
     31                 E13/UZF-1                 27      0.00       0.00                  E13/LAK-1                 2     
     32                 E13/UZF-1                 28      0.00       0.00                  E13/LAK-1                 2     
     33                 E13/UZF-1                 29      0.00       0.00                  E13/SFR-1                 5     
     34                 E13/UZF-1                 30      0.00       0.00                  E13/SFR-1                 6     
     35                 E13/UZF-1                 31      0.00       0.00                  E13/SFR-1                 6     
     36                 E13/UZF-1                 32      0.00       0.00                  E13/SFR-1                 14    
     37                 E13/UZF-1                 33      0.00       0.00                  E13/SFR-1                 17    
     38                 E13/UZF-1                 34      0.00       0.00                  E13/SFR-1                 16    
     39                 E13/UZF-1                 35      0.00       0.00                  E13/LAK-1                 2     
     40                 E13/UZF-1                 36      0.00       0.00                  E13/LAK-1                 2     
     41                 E13/UZF-1                 37      0.00       0.00                  E13/LAK-1                 2     
     42                 E13/UZF-1                 38      0.00       0.00                  E13/LAK-1                 2     
     43                 E13/UZF-1                 39      0.00       0.00                  E13/LAK-1                 2     
     44                 E13/UZF-1                 40      0.00       0.00                  E13/SFR-1                 7     
     45                 E13/UZF-1                 41      0.00       0.00                  E13/SFR-1                 7     
     46                 E13/UZF-1                 42      0.00       0.00                  E13/SFR-1                 19    
     47                 E13/UZF-1                 43      0.00       0.00                  E13/SFR-1                 17    
     48                 E13/UZF-1                 44      0.00       0.00                  E13/SFR-1                 16    
     49                 E13/UZF-1                 45      0.00       0.00                  E13/LAK-1                 2     
     50                 E13/UZF-1                 46      0.00       0.00                  E13/LAK-1                 2     
     51                 E13/UZF-1                 47      0.00       0.00                  E13/LAK-1                 2     
     52                 E13/UZF-1                 48      0.00       0.00                  E13/LAK-1                 2     
     53                 E13/UZF-1                 49      0.00       0.00                  E13/LAK-1                 2     
     54                 E13/UZF-1                 50      0.00       0.00                  E13/SFR-1                 8     
     55                 E13/UZF-1                 51      0.00       0.00                  E13/SFR-1                 20    
     56                 E13/UZF-1                 52      0.00       0.00                  E13/SFR-1                 20    
     57                 E13/UZF-1                 53      0.00       0.00                  E13/SFR-1                 20    
     58                 E13/UZF-1                 54      0.00       0.00                  E13/LAK-1                 2     
     59                 E13/UZF-1                 55      0.00       0.00                  E13/LAK-1                 2     
     60                 E13/UZF-1                 56      0.00       0.00                  E13/LAK-1                 2     
     61                 E13/UZF-1                 57      0.00       0.00                  E13/LAK-1                 2     
     62                 E13/UZF-1                 58      0.00       0.00                  E13/SFR-1                 9     
     63                 E13/UZF-1                 59      0.00       0.00                  E13/SFR-1                 21    
     64                 E13/UZF-1                 60      0.00       0.00                  E13/SFR-1                 21    
     65                 E13/UZF-1                 61      0.00       0.00                  E13/SFR-1                 21    
     66                 E13/UZF-1                 62      0.00       0.00                  E13/LAK-1                 2     
     67                 E13/UZF-1                 63      0.00       0.00                  E13/LAK-1                 2     
     68                 E13/UZF-1                 64      0.00       0.00                  E13/LAK-1                 2     
     69                 E13/UZF-1                 65      0.00       0.00                  E13/LAK-1                 2     
     70                 E13/UZF-1                 66      0.00       0.00                  E13/SFR-1                 23    
     71                 E13/UZF-1                 67      0.00       0.00                  E13/LAK-1                 1     
     72                 E13/UZF-1                 68      0.00       0.00                  E13/LAK-1                 1     
     73                 E13/UZF-1                 69      0.00       0.00                  E13/LAK-1                 1     
     74                 E13/UZF-1                 70      0.00       0.00                  E13/LAK-1                 2     
     75                 E13/UZF-1                 71      0.00       0.00                  E13/LAK-1                 2     
     76                 E13/UZF-1                 72      0.00       0.00                  E13/LAK-1                 2     
     77                 E13/UZF-1                 73      0.00       0.00                  E13/LAK-1                 2     
     78                 E13/UZF-1                 74      0.00       0.00                  E13/LAK-1                 1     
     79                 E13/UZF-1                 75      0.00       0.00                  E13/LAK-1                 1     
     80                 E13/UZF-1                 76      0.00       0.00                  E13/LAK-1                 1     
     81                 E13/UZF-1                 77      0.00       0.00                  E13/LAK-1                 2     
     82                 E13/UZF-1                 78      0.00       0.00                  E13/SFR-1                 9     
     83                 E13/UZF-1                 79      0.00       0.00                  E13/LAK-1                 1     
     84                 E13/UZF-1                 80      0.00       0.00                  E13/SFR-1                 31    
     85                 E13/UZF-1                 81      0.00       0.00                  E13/SFR-1                 30    
     86                 E13/UZF-1                 82      0.00       0.00                  E13/SFR-1                 9     
     87                 E13/UZF-1                 83      0.00       0.00                  E13/SFR-1                 24    
     88                 E13/UZF-1                 84      0.00       0.00                  E13/LAK-1                 1     
     89                 E13/UZF-1                 85      0.00       0.00                  E13/LAK-1                 1     
     90                 E13/UZF-1                 86      7.37       7.37                  E13/SFR-1                 31    
     91                 E13/UZF-1                 87      0.523      0.523                 E13/SFR-1                 30    
     92                 E13/UZF-1                 88      0.00       0.00                  E13/SFR-1                 29    
     93                 E13/UZF-1                 89      0.00       0.00                  E13/SFR-1                 28    
     94                 E13/UZF-1                 90      0.00       0.00                  E13/SFR-1                 27    
     95                 E13/UZF-1                 91      0.00       0.00                  E13/SFR-1                 26    
     96                 E13/UZF-1                 92      0.00       0.00                  E13/SFR-1                 30    
     97                 E13/UZF-1                 93      0.00       0.00                  E13/LAK-1                 2     
     98                 E13/UZF-1                 94      0.00       0.00                  E13/SFR-1                 28    
     99                 E13/UZF-1                 95      0.00       0.00                  E13/SFR-1                 27    
    100                 E13/UZF-1                 96      0.00       0.00                  E13/SFR-1                 26    
    101                 E13/UZF-1                 97      0.00       0.00                  E13/LAK-1                 2     
    102                 E13/UZF-1                 98      0.00       0.00                  E13/LAK-1                 2     
    103                 E13/UZF-1                 99      0.00       0.00                  E13/LAK-1                 2     
    104                 E13/UZF-1                100      0.00       0.00                  E13/LAK-1                 2     
    105                 E13/WEL-1                 1       0.00       0.00                  E13/UZF-1                 38    
    106                 E13/WEL-1                 2       0.00       0.00                  E13/UZF-1                 39    
    107                 E13/WEL-1                 3       0.00       0.00                  E13/UZF-1                 48    
    108                 E13/WEL-1                 4       0.00       0.00                  E13/UZF-1                 49    
    109                 E13/WEL-1                 5       0.00       0.00                  E13/UZF-1                 56    
    110                 E13/WEL-1                 6       0.00       0.00                  E13/UZF-1                 57    
    111                 E13/WEL-1                 7       0.00       0.00                  E13/UZF-1                 64    
    112                 E13/WEL-1                 8       0.00       0.00                  E13/UZF-1                 65    
    113                 E13/WEL-1                 9       0.00       0.00                  E13/UZF-1                 72    
    114                 E13/WEL-1                 10      0.00       0.00                  E13/UZF-1                 73    
 --------------------------------------------------------------------------------------------------------------------------



 SFR PACKAGE (SFR-1) STAGES FOR EACH CONTROL VOLUME   PERIOD     14   STEP       15
 ------------------------------------------------------------------------------------------------------------------------------------------------------
                                                                                                                               STREAMBED    STREAMBED  
 NAME                                       NUMBER   CELLID                  STAGE        DEPTH        WIDTH       GWF HEAD   CONDUCTANCE    GRADIENT  
 ------------------------------------------------------------------------------------------------------------------------------------------------------
 ALLREACHES                                   1      (1,1,1)               1094.3       1.2349       12.000       1019.6       5.40000E-02  1.4116     
 ALLREACHES                                   2      (1,2,2)               1089.3       1.2262       12.000       1020.1       8.40000E-02  1.4087     
 ALLREACHES                                   3      (1,3,3)               1083.6       1.2163       12.000       1020.1       7.20000E-02  1.4054     
 ALLREACHES                                   4      (1,3,4)               1078.6       1.2075       12.000       1020.2       6.66000E-02  1.4025     
 ALLREACHES                                   5      (1,4,5)               1072.8       0.84113      12.000       1020.2       7.80000E-02  1.2804     
 ALLREACHES                                   6      (1,5,6)               1067.3       0.83133      12.000       1019.9       6.00000E-02  1.2771     
 ALLREACHES                                   7      (1,6,6)               1062.6       0.82276      12.000       1019.1       6.00000E-02  1.2743     
 ALLREACHES                                   8      (1,7,6)               1057.9       0.81415      12.000       1018.8       6.00000E-02  1.2714     
 ALLREACHES                                   9      (1,8,6)               1053.2       0.80551      12.000       1018.8       6.00000E-02  1.2685     
 ALLREACHES                                   10     (1,3,5)               1074.6       0.93630      9.6364       1019.6       7.22727E-03  1.4681     
 ALLREACHES                                   11     (1,3,6)               1071.9       0.98022      8.9091       1019.9       6.68182E-03  1.4901     
 ALLREACHES                                   12     (1,3,7)               1069.3       1.0277       8.2182       1020.0       5.54727E-03  1.5139     
 ALLREACHES                                   13     (1,4,8)               1066.5       1.0884       7.4545       1019.5       6.70909E-03  1.5442     
 ALLREACHES                                   14     (1,5,8)               1063.6       1.1639       6.6545       1018.7       4.99091E-03  1.5819     
 ALLREACHES                                   15     (1,6,8)               1061.8       1.2200       6.1455       1019.3       1.84364E-03  1.6100     
 ALLREACHES                                   16     (1,5,10)              1078.4       0.63679      10.000       1019.5       2.50000E-02  1.2123     
 ALLREACHES                                   17     (1,5,9)               1071.5       0.63155      10.000       1019.8       5.00000E-02  1.2105     
 ALLREACHES                                   18     (1,6,8)               1063.8       0.62558      10.000       1019.3       3.50000E-02  1.2085     
 ALLREACHES                                   19     (1,6,8)               1060.0       1.2846       10.000       1019.3       4.00000E-02  1.4282     
 ALLREACHES                                   20     (1,7,7)               1056.9       1.2770       10.000       1019.0       5.00000E-02  1.4257     
 ALLREACHES                                   21     (1,8,7)               1054.1       1.2697       10.000       1018.8       3.50000E-02  1.4232     
 ALLREACHES                                   22     (1,8,6)               1052.1       1.2646       10.000       1018.8       2.50000E-02  1.4215     
 ALLREACHES                                   23     (1,9,6)               1046.6       1.1396       12.000       1018.3       6.00000E-02  1.3799     
 ALLREACHES                                   24     (1,12,7)              1037.7       1.2566       12.000       1020.0       6.00000E-03  1.4189     
 ALLREACHES                                   25     (1,13,7)              1030.2       1.2559       12.000       1023.0       6.60000E-03  1.4186     
 ALLREACHES                                   26     (1,14,9)              1034.8       1.4870       60.000       1027.4       0.60000      1.4957     
 ALLREACHES                                   27     (1,13,8)              1031.5       1.4708       60.000       1024.7       0.60000      1.4903     
 ALLREACHES                                   28     (1,13,7)              1028.1       1.4546       60.000       1023.0       0.60000      1.4849     
 ALLREACHES                                   29     (1,13,6)              1013.9       0.90953      60.000       1017.3       0.60000     -1.1262     
 ALLREACHES                                   30     (1,13,2)              998.30       1.4290       60.000       1003.9       0.60000     -1.8661     
 ALLREACHES                                   31     (1,13,1)              993.35       1.4722       60.000       997.01       0.36000     -1.2196     
 ------------------------------------------------------------------------------------------------------------------------------------------------------



 LAK PACKAGE (LAK-1) STAGES FOR EACH CONTROL VOLUME   PERIOD     14   STEP       15
 --------------------------------------------------------------
   NUMBER      STAGE     SURFACE AREA WETTED AREA     VOLUME   
 --------------------------------------------------------------
     1       1041.3       1.00000E+08  1.01383E+08  4.27573E+09
     2       1001.4       3.00000E+08  3.01464E+08  5.30071E+09
 --------------------------------------------------------------



 HEAD WILL BE SAVED ON UNIT 1026 AT END OF TIME STEP   15, STRESS PERIOD   14


  SFR-1 BUDGET FOR ENTIRE MODEL AT END OF TIME STEP   15, STRESS PERIOD  14
  ------------------------------------------------------------------------------

     CUMULATIVE SFR-1      L**3       RATES FOR THIS TIME STEP      L**3/T
     ------------------                 ------------------------

           IN:                                      IN:
           ---                                      ---
                 GWF =   221999382.4170                   GWF =           6.7033
            RAINFALL =           0.0000              RAINFALL =           0.0000
         EVAPORATION =           0.0000           EVAPORATION =           0.0000
              RUNOFF =           0.0000                RUNOFF =           0.0000
          EXT-INFLOW =  6806520000.0000            EXT-INFLOW =         185.0000
         EXT-OUTFLOW =       1.2518E-02           EXT-OUTFLOW =           0.0000
             STORAGE =           0.0000               STORAGE =           0.0000
            FROM-MVR =  8311963009.0082              FROM-MVR =         229.0552
              TO-MVR =           0.0000                TO-MVR =           0.0000

            TOTAL IN = 15340482391.4377              TOTAL IN =         420.7585

          OUT:                                     OUT:
          ----                                     ----
                 GWF =   436866109.7211                   GWF =          11.8740
            RAINFALL =           0.0000              RAINFALL =           0.0000
         EVAPORATION =           0.0000           EVAPORATION =           0.0000
              RUNOFF =           0.0000                RUNOFF =           0.0000
          EXT-INFLOW =           0.0000            EXT-INFLOW =           0.0000
         EXT-OUTFLOW =  7269641820.9077           EXT-OUTFLOW =         200.8476
             STORAGE =           0.0000               STORAGE =           0.0000
            FROM-MVR =           0.0000              FROM-MVR =           0.0000
              TO-MVR =  7633974460.8090                TO-MVR =         208.0368

           TOTAL OUT = 15340482391.4377             TOTAL OUT =         420.7585

            IN - OUT =      -1.9073E-06              IN - OUT =           0.0000

 PERCENT DISCREPANCY =          -0.00     PERCENT DISCREPANCY =           0.00



  LAK-1 BUDGET FOR ENTIRE MODEL AT END OF TIME STEP   15, STRESS PERIOD  14
  ------------------------------------------------------------------------------

     CUMULATIVE LAK-1      L**3       RATES FOR THIS TIME STEP      L**3/T
     ------------------                 ------------------------

           IN:                                      IN:
           ---                                      ---
                 GWF =   283607150.3237                   GWF =           8.2817
            RAINFALL =   316411200.0000              RAINFALL =           8.6000
         EVAPORATION =           0.0000           EVAPORATION =           0.0000
              RUNOFF =   165564000.0000                RUNOFF =           4.5000
          EXT-INFLOW =           0.0000            EXT-INFLOW =           0.0000
          WITHDRAWAL =           0.0000            WITHDRAWAL =           0.0000
         EXT-OUTFLOW =           1.2163           EXT-OUTFLOW =       5.1788E-09
             STORAGE =      310708.8727               STORAGE =       4.7614E-03
            CONSTANT =           0.0000              CONSTANT =           0.0000
            FROM-MVR =  7633974460.8090              FROM-MVR =         208.0368
              TO-MVR =           0.0000                TO-MVR =           0.0000

            TOTAL IN =  8399867521.2217              TOTAL IN =         229.4232

          OUT:                                     OUT:
          ----                                     ----
                 GWF =   148266284.4041                   GWF =           3.8267
            RAINFALL =           0.0000              RAINFALL =           0.0000
         EVAPORATION =   158205600.0000           EVAPORATION =           4.3000
              RUNOFF =           0.0000                RUNOFF =           0.0000
          EXT-INFLOW =           0.0000            EXT-INFLOW =           0.0000
          WITHDRAWAL =     4415040.0000            WITHDRAWAL =           0.1200
         EXT-OUTFLOW =           2.1955           EXT-OUTFLOW =           0.0000
             STORAGE =     3457458.6409               STORAGE =       1.6583E-02
            CONSTANT =           0.0000              CONSTANT =           0.0000
            FROM-MVR =           0.0000              FROM-MVR =           0.0000
              TO-MVR =  8085523136.9873                TO-MVR =         221.1599

           TOTAL OUT =  8399867522.2279             TOTAL OUT =         229.4232

            IN - OUT =          -1.0061              IN - OUT =      -6.1832E-08

 PERCENT DISCREPANCY =          -0.00     PERCENT DISCREPANCY =          -0.00



  UZF-1 BUDGET FOR ENTIRE MODEL AT END OF TIME STEP   15, STRESS PERIOD  14
  ------------------------------------------------------------------------------

     CUMULATIVE UZF-1      L**3       RATES FOR THIS TIME STEP      L**3/T
     ------------------                 ------------------------

           IN:                                      IN:
           ---                                      ---
                 GWF =           0.0000                   GWF =           0.0000
        INFILTRATION =  3833241271.2000          INFILTRATION =         306.0000
             REJ-INF =           0.0000               REJ-INF =           0.0000
                UZET =           0.0000                  UZET =           0.0000
             STORAGE =  1533049176.3355               STORAGE =          14.7687
            FROM-MVR =   201042000.0000              FROM-MVR =           0.0000
      REJ-INF-TO-MVR =           0.0000        REJ-INF-TO-MVR =           0.0000

            TOTAL IN =  5567332447.5355              TOTAL IN =         320.7687

          OUT:                                     OUT:
          ----                                     ----
                 GWF =   860487392.4256                   GWF =          32.2914
        INFILTRATION =           0.0000          INFILTRATION =           0.0000
             REJ-INF =          26.1879               REJ-INF =       6.6521E-06
                UZET =   762504884.6550                  UZET =          21.6374
             STORAGE =  3931329196.4893               STORAGE =         265.3174
            FROM-MVR =           0.0000              FROM-MVR =           0.0000
      REJ-INF-TO-MVR =    13010883.8793        REJ-INF-TO-MVR =           1.5225

           TOTAL OUT =  5567332383.6371             TOTAL OUT =         320.7687

            IN - OUT =          63.8984              IN - OUT =       1.6672E-06

 PERCENT DISCREPANCY =           0.00     PERCENT DISCREPANCY =           0.00



  WATER MOVER BUDGET FOR ENTIRE MODEL AT END OF TIME STEP   15, STRESS PERIOD  14
  ------------------------------------------------------------------------------

     CUMULATIVE WATER MOVER      L**3       RATES FOR THIS TIME STEP      L**3/T
     ------------------                 ------------------------

           IN:                                      IN:
           ---                                      ---
               UZF-1 =   226439872.0209                 UZF-1 =           7.8953
               SFR-1 =  7633974460.8090                 SFR-1 =         208.0368
               LAK-1 =  8085523136.9873                 LAK-1 =         221.1599
               WEL-1 =   201042000.0000                 WEL-1 =           0.0000

            TOTAL IN = 16146979469.8172              TOTAL IN =         437.0920

          OUT:                                     OUT:
          ----                                     ----
               UZF-1 =   201042000.0000                 UZF-1 =           0.0000
               SFR-1 =  8311963009.0082                 SFR-1 =         229.0552
               LAK-1 =  7633974460.8090                 LAK-1 =         208.0368
               WEL-1 =           0.0000                 WEL-1 =           0.0000

           TOTAL OUT = 16146979469.8172             TOTAL OUT =         437.0920

            IN - OUT =           0.0000              IN - OUT =           0.0000

 PERCENT DISCREPANCY =           0.00     PERCENT DISCREPANCY =           0.00



  VOLUME BUDGET FOR ENTIRE MODEL AT END OF TIME STEP   15, STRESS PERIOD  14
  ---------------------------------------------------------------------------------------------------

     CUMULATIVE VOLUME      L**3       RATES FOR THIS TIME STEP      L**3/T          PACKAGE NAME    
     ------------------                 ------------------------                     ----------------

           IN:                                      IN:
           ---                                      ---
              STO-SS =      825210.4116                STO-SS =       1.1480E-02     STORAGE                          
              STO-SY =   255643124.9512                STO-SY =           2.9318     STORAGE                          
                 WEL =           0.0000                   WEL =           0.0000     WEL-1                            
          WEL-TO-MVR =           0.0000            WEL-TO-MVR =           0.0000     WEL-1                            
                 GHB =    25814758.4055                   GHB =           0.6697     GHB_0                            
                 SFR =   436866109.7211                   SFR =          11.8740     SFR-1                            
                 LAK =   148266284.4041                   LAK =           3.8267     LAK-1                            
           UZF-GWRCH =   860487392.4256             UZF-GWRCH =          32.2914     UZF-1                            
             UZF-GWD =           0.0000               UZF-GWD =           0.0000     UZF-1                            
      UZF-GWD TO-MVR =           0.0000        UZF-GWD TO-MVR =           0.0000     UZF-1                            
            UZF-GWET =           0.0000              UZF-GWET =           0.0000     UZF-1                            

            TOTAL IN =  1727902880.3190              TOTAL IN =          51.6051

          OUT:                                     OUT:
          ----                                     ----
              STO-SS =     3760779.9575                STO-SS =       9.6269E-02     STORAGE                          
              STO-SY =   770760236.9102                STO-SY =          29.2069     STORAGE                          
                 WEL =           0.0000                   WEL =           0.0000     WEL-1                            
          WEL-TO-MVR =   201042000.0000            WEL-TO-MVR =           0.0000     WEL-1                            
                 GHB =    12588691.2219                   GHB =           0.3422     GHB_0                            
                 SFR =   221999667.7092                   SFR =           6.7033     SFR-1                            
                 LAK =   283607150.3237                   LAK =           8.2817     LAK-1                            
           UZF-GWRCH =           0.0000             UZF-GWRCH =           0.0000     UZF-1                            
             UZF-GWD =         103.4237               UZF-GWD =       1.7206E-06     UZF-1                            
      UZF-GWD TO-MVR =   213428988.1416        UZF-GWD TO-MVR =           6.3727     UZF-1                            
            UZF-GWET =    20705593.6100              UZF-GWET =           0.6020     UZF-1                            

           TOTAL OUT =  1727893211.2978             TOTAL OUT =          51.6051

            IN - OUT =        9669.0213              IN - OUT =       5.3105E-06

 PERCENT DISCREPANCY =           0.00     PERCENT DISCREPANCY =           0.00




         TIME SUMMARY AT END OF TIME STEP   15 IN STRESS PERIOD   14
                    SECONDS     MINUTES      HOURS       DAYS        YEARS
                    -----------------------------------------------------------
   TIME STEP LENGTH 1.75200E+05  2920.0      48.667      2.0278     5.55175E-03
 STRESS PERIOD TIME 2.62800E+06  43800.      730.00      30.417     8.32763E-02
         TOTAL TIME 3.67920E+07 6.13200E+05  10220.      425.83      1.1659    


end timestep


start timestep kper="15" kstp="1" mode="normal"


 OUTPUT CONTROL FOR STRESS PERIOD 15 IS REPEATED USING SETTINGS FROM A PREVIOUS STRESS PERIOD.


 STRESS PERIOD 15 IS TRANSIENT


 REUSING MVRS FROM LAST STRESS PERIOD

 REUSING SFRS FROM LAST STRESS PERIOD

 REUSING LAKS FROM LAST STRESS PERIOD

end timestep


start timestep kper="15" kstp="2" mode="normal"


end timestep


start timestep kper="15" kstp="3" mode="normal"


end timestep


start timestep kper="15" kstp="4" mode="normal"


end timestep


start timestep kper="15" kstp="5" mode="normal"


end timestep


start timestep kper="15" kstp="6" mode="normal"


end timestep


start timestep kper="15" kstp="7" mode="normal"


end timestep


start timestep kper="15" kstp="8" mode="normal"


end timestep


start timestep kper="15" kstp="9" mode="normal"


end timestep


start timestep kper="15" kstp="10" mode="normal"


end timestep


start timestep kper="15" kstp="11" mode="normal"


end timestep


start timestep kper="15" kstp="12" mode="normal"


end timestep


start timestep kper="15" kstp="13" mode="normal"


end timestep


start timestep kper="15" kstp="14" mode="normal"


end timestep


start timestep kper="15" kstp="15" mode="normal"

 UBDSV1 SAVING           STO-SS ON UNIT   1025 AT TIME STEP     15, STRESS PERIOD     15
 UBDSV1 SAVING           STO-SY ON UNIT   1025 AT TIME STEP     15, STRESS PERIOD     15
 UBDSV1 SAVING     FLOW-JA-FACE ON UNIT   1025 AT TIME STEP     15, STRESS PERIOD     15
 UBDSV06 SAVING       DATA-SPDIS IN MODEL E13              PACKAGE NPF             CONNECTED TO MODEL E13              PACKAGE NPF              ON UNIT   1025 AT TIME STEP     15, STRESS PERIOD     15
 UBDSV06 SAVING              WEL IN MODEL E13              PACKAGE E13             CONNECTED TO MODEL E13              PACKAGE WEL-1            ON UNIT   1025 AT TIME STEP     15, STRESS PERIOD     15
 UBDSV06 SAVING       WEL-TO-MVR IN MODEL E13              PACKAGE E13             CONNECTED TO MODEL E13              PACKAGE WEL-1            ON UNIT   1025 AT TIME STEP     15, STRESS PERIOD     15
 UBDSV06 SAVING              GHB IN MODEL E13              PACKAGE E13             CONNECTED TO MODEL E13              PACKAGE GHB_0            ON UNIT   1025 AT TIME STEP     15, STRESS PERIOD     15
 UBDSV06 SAVING              SFR IN MODEL E13              PACKAGE E13             CONNECTED TO MODEL E13              PACKAGE SFR-1            ON UNIT   1025 AT TIME STEP     15, STRESS PERIOD     15
 UBDSV06 SAVING              LAK IN MODEL E13              PACKAGE E13             CONNECTED TO MODEL E13              PACKAGE LAK-1            ON UNIT   1025 AT TIME STEP     15, STRESS PERIOD     15
 UBDSV06 SAVING        UZF-GWRCH IN MODEL E13              PACKAGE E13             CONNECTED TO MODEL E13              PACKAGE UZF-1            ON UNIT   1025 AT TIME STEP     15, STRESS PERIOD     15
 UBDSV06 SAVING          UZF-GWD IN MODEL E13              PACKAGE E13             CONNECTED TO MODEL E13              PACKAGE UZF-1            ON UNIT   1025 AT TIME STEP     15, STRESS PERIOD     15
 UBDSV06 SAVING   UZF-GWD TO-MVR IN MODEL E13              PACKAGE E13             CONNECTED TO MODEL E13              PACKAGE UZF-1            ON UNIT   1025 AT TIME STEP     15, STRESS PERIOD     15
 UBDSV06 SAVING         UZF-GWET IN MODEL E13              PACKAGE E13             CONNECTED TO MODEL E13              PACKAGE UZF-1            ON UNIT   1025 AT TIME STEP     15, STRESS PERIOD     15
 UBDSV06 SAVING     FLOW-JA-FACE IN MODEL E13              PACKAGE SFR-1           CONNECTED TO MODEL E13              PACKAGE SFR-1            ON UNIT   1017 AT TIME STEP     15, STRESS PERIOD     15
 UBDSV06 SAVING              GWF IN MODEL E13              PACKAGE SFR-1           CONNECTED TO MODEL E13              PACKAGE E13              ON UNIT   1017 AT TIME STEP     15, STRESS PERIOD     15
 UBDSV06 SAVING         RAINFALL IN MODEL E13              PACKAGE SFR-1           CONNECTED TO MODEL E13              PACKAGE SFR-1            ON UNIT   1017 AT TIME STEP     15, STRESS PERIOD     15
 UBDSV06 SAVING      EVAPORATION IN MODEL E13              PACKAGE SFR-1           CONNECTED TO MODEL E13              PACKAGE SFR-1            ON UNIT   1017 AT TIME STEP     15, STRESS PERIOD     15
 UBDSV06 SAVING           RUNOFF IN MODEL E13              PACKAGE SFR-1           CONNECTED TO MODEL E13              PACKAGE SFR-1            ON UNIT   1017 AT TIME STEP     15, STRESS PERIOD     15
 UBDSV06 SAVING       EXT-INFLOW IN MODEL E13              PACKAGE SFR-1           CONNECTED TO MODEL E13              PACKAGE SFR-1            ON UNIT   1017 AT TIME STEP     15, STRESS PERIOD     15
 UBDSV06 SAVING      EXT-OUTFLOW IN MODEL E13              PACKAGE SFR-1           CONNECTED TO MODEL E13              PACKAGE SFR-1            ON UNIT   1017 AT TIME STEP     15, STRESS PERIOD     15
 UBDSV06 SAVING          STORAGE IN MODEL E13              PACKAGE SFR-1           CONNECTED TO MODEL E13              PACKAGE SFR-1            ON UNIT   1017 AT TIME STEP     15, STRESS PERIOD     15
 UBDSV06 SAVING         FROM-MVR IN MODEL E13              PACKAGE SFR-1           CONNECTED TO MODEL E13              PACKAGE SFR-1            ON UNIT   1017 AT TIME STEP     15, STRESS PERIOD     15
 UBDSV06 SAVING           TO-MVR IN MODEL E13              PACKAGE SFR-1           CONNECTED TO MODEL E13              PACKAGE SFR-1            ON UNIT   1017 AT TIME STEP     15, STRESS PERIOD     15
 UBDSV06 SAVING              GWF IN MODEL E13              PACKAGE LAK-1           CONNECTED TO MODEL E13              PACKAGE E13              ON UNIT   1019 AT TIME STEP     15, STRESS PERIOD     15
 UBDSV06 SAVING         RAINFALL IN MODEL E13              PACKAGE LAK-1           CONNECTED TO MODEL E13              PACKAGE LAK-1            ON UNIT   1019 AT TIME STEP     15, STRESS PERIOD     15
 UBDSV06 SAVING      EVAPORATION IN MODEL E13              PACKAGE LAK-1           CONNECTED TO MODEL E13              PACKAGE LAK-1            ON UNIT   1019 AT TIME STEP     15, STRESS PERIOD     15
 UBDSV06 SAVING           RUNOFF IN MODEL E13              PACKAGE LAK-1           CONNECTED TO MODEL E13              PACKAGE LAK-1            ON UNIT   1019 AT TIME STEP     15, STRESS PERIOD     15
 UBDSV06 SAVING       EXT-INFLOW IN MODEL E13              PACKAGE LAK-1           CONNECTED TO MODEL E13              PACKAGE LAK-1            ON UNIT   1019 AT TIME STEP     15, STRESS PERIOD     15
 UBDSV06 SAVING       WITHDRAWAL IN MODEL E13              PACKAGE LAK-1           CONNECTED TO MODEL E13              PACKAGE LAK-1            ON UNIT   1019 AT TIME STEP     15, STRESS PERIOD     15
 UBDSV06 SAVING      EXT-OUTFLOW IN MODEL E13              PACKAGE LAK-1           CONNECTED TO MODEL E13              PACKAGE LAK-1            ON UNIT   1019 AT TIME STEP     15, STRESS PERIOD     15
 UBDSV06 SAVING          STORAGE IN MODEL E13              PACKAGE LAK-1           CONNECTED TO MODEL E13              PACKAGE LAK-1            ON UNIT   1019 AT TIME STEP     15, STRESS PERIOD     15
 UBDSV06 SAVING         CONSTANT IN MODEL E13              PACKAGE LAK-1           CONNECTED TO MODEL E13              PACKAGE LAK-1            ON UNIT   1019 AT TIME STEP     15, STRESS PERIOD     15
 UBDSV06 SAVING         FROM-MVR IN MODEL E13              PACKAGE LAK-1           CONNECTED TO MODEL E13              PACKAGE LAK-1            ON UNIT   1019 AT TIME STEP     15, STRESS PERIOD     15
 UBDSV06 SAVING           TO-MVR IN MODEL E13              PACKAGE LAK-1           CONNECTED TO MODEL E13              PACKAGE LAK-1            ON UNIT   1019 AT TIME STEP     15, STRESS PERIOD     15
 UBDSV06 SAVING     FLOW-JA-FACE IN MODEL E13              PACKAGE UZF-1           CONNECTED TO MODEL E13              PACKAGE UZF-1            ON UNIT   1021 AT TIME STEP     15, STRESS PERIOD     15
 UBDSV06 SAVING              GWF IN MODEL E13              PACKAGE UZF-1           CONNECTED TO MODEL E13              PACKAGE E13              ON UNIT   1021 AT TIME STEP     15, STRESS PERIOD     15
 UBDSV06 SAVING     INFILTRATION IN MODEL E13              PACKAGE UZF-1           CONNECTED TO MODEL E13              PACKAGE UZF-1            ON UNIT   1021 AT TIME STEP     15, STRESS PERIOD     15
 UBDSV06 SAVING          REJ-INF IN MODEL E13              PACKAGE UZF-1           CONNECTED TO MODEL E13              PACKAGE UZF-1            ON UNIT   1021 AT TIME STEP     15, STRESS PERIOD     15
 UBDSV06 SAVING             UZET IN MODEL E13              PACKAGE UZF-1           CONNECTED TO MODEL E13              PACKAGE UZF-1            ON UNIT   1021 AT TIME STEP     15, STRESS PERIOD     15
 UBDSV06 SAVING          STORAGE IN MODEL E13              PACKAGE UZF-1           CONNECTED TO MODEL E13              PACKAGE UZF-1            ON UNIT   1021 AT TIME STEP     15, STRESS PERIOD     15
 UBDSV06 SAVING         FROM-MVR IN MODEL E13              PACKAGE UZF-1           CONNECTED TO MODEL E13              PACKAGE UZF-1            ON UNIT   1021 AT TIME STEP     15, STRESS PERIOD     15
 UBDSV06 SAVING   REJ-INF-TO-MVR IN MODEL E13              PACKAGE UZF-1           CONNECTED TO MODEL E13              PACKAGE UZF-1            ON UNIT   1021 AT TIME STEP     15, STRESS PERIOD     15
 UBDSV06 SAVING       MOVER-FLOW IN MODEL E13              PACKAGE UZF-1           CONNECTED TO MODEL E13              PACKAGE UZF-1            ON UNIT   1023 AT TIME STEP     15, STRESS PERIOD     15
 UBDSV06 SAVING       MOVER-FLOW IN MODEL E13              PACKAGE UZF-1           CONNECTED TO MODEL E13              PACKAGE SFR-1            ON UNIT   1023 AT TIME STEP     15, STRESS PERIOD     15
 UBDSV06 SAVING       MOVER-FLOW IN MODEL E13              PACKAGE UZF-1           CONNECTED TO MODEL E13              PACKAGE LAK-1            ON UNIT   1023 AT TIME STEP     15, STRESS PERIOD     15
 UBDSV06 SAVING       MOVER-FLOW IN MODEL E13              PACKAGE UZF-1           CONNECTED TO MODEL E13              PACKAGE WEL-1            ON UNIT   1023 AT TIME STEP     15, STRESS PERIOD     15
 UBDSV06 SAVING       MOVER-FLOW IN MODEL E13              PACKAGE SFR-1           CONNECTED TO MODEL E13              PACKAGE UZF-1            ON UNIT   1023 AT TIME STEP     15, STRESS PERIOD     15
 UBDSV06 SAVING       MOVER-FLOW IN MODEL E13              PACKAGE SFR-1           CONNECTED TO MODEL E13              PACKAGE SFR-1            ON UNIT   1023 AT TIME STEP     15, STRESS PERIOD     15
 UBDSV06 SAVING       MOVER-FLOW IN MODEL E13              PACKAGE SFR-1           CONNECTED TO MODEL E13              PACKAGE LAK-1            ON UNIT   1023 AT TIME STEP     15, STRESS PERIOD     15
 UBDSV06 SAVING       MOVER-FLOW IN MODEL E13              PACKAGE SFR-1           CONNECTED TO MODEL E13              PACKAGE WEL-1            ON UNIT   1023 AT TIME STEP     15, STRESS PERIOD     15
 UBDSV06 SAVING       MOVER-FLOW IN MODEL E13              PACKAGE LAK-1           CONNECTED TO MODEL E13              PACKAGE UZF-1            ON UNIT   1023 AT TIME STEP     15, STRESS PERIOD     15
 UBDSV06 SAVING       MOVER-FLOW IN MODEL E13              PACKAGE LAK-1           CONNECTED TO MODEL E13              PACKAGE SFR-1            ON UNIT   1023 AT TIME STEP     15, STRESS PERIOD     15
 UBDSV06 SAVING       MOVER-FLOW IN MODEL E13              PACKAGE LAK-1           CONNECTED TO MODEL E13              PACKAGE LAK-1            ON UNIT   1023 AT TIME STEP     15, STRESS PERIOD     15
 UBDSV06 SAVING       MOVER-FLOW IN MODEL E13              PACKAGE LAK-1           CONNECTED TO MODEL E13              PACKAGE WEL-1            ON UNIT   1023 AT TIME STEP     15, STRESS PERIOD     15
 UBDSV06 SAVING       MOVER-FLOW IN MODEL E13              PACKAGE WEL-1           CONNECTED TO MODEL E13              PACKAGE UZF-1            ON UNIT   1023 AT TIME STEP     15, STRESS PERIOD     15
 UBDSV06 SAVING       MOVER-FLOW IN MODEL E13              PACKAGE WEL-1           CONNECTED TO MODEL E13              PACKAGE SFR-1            ON UNIT   1023 AT TIME STEP     15, STRESS PERIOD     15
 UBDSV06 SAVING       MOVER-FLOW IN MODEL E13              PACKAGE WEL-1           CONNECTED TO MODEL E13              PACKAGE LAK-1            ON UNIT   1023 AT TIME STEP     15, STRESS PERIOD     15
 UBDSV06 SAVING       MOVER-FLOW IN MODEL E13              PACKAGE WEL-1           CONNECTED TO MODEL E13              PACKAGE WEL-1            ON UNIT   1023 AT TIME STEP     15, STRESS PERIOD     15

 WEL PACKAGE (WEL-1) FLOW RATES   PERIOD     15   STEP       15
 -----------------------------------------------
   NUMBER   CELLID                    RATE      
 -----------------------------------------------
     1      (1,6,4)               0.0000000     
     2      (1,6,5)               0.0000000     
     3      (1,7,4)               0.0000000     
     4      (1,7,5)               0.0000000     
     5      (1,8,4)               0.0000000     
     6      (1,8,5)               0.0000000     
     7      (1,9,4)               0.0000000     
     8      (1,9,5)               0.0000000     
     9      (1,10,4)              0.0000000     
     10     (1,10,5)              0.0000000     
 -----------------------------------------------




 WEL PACKAGE (WEL-1) FLOW RATES TO-MVR   PERIOD     15   STEP       15
 -----------------------------------------------
   NUMBER   CELLID                    RATE      
 -----------------------------------------------
     1      (1,6,4)               0.0000000     
     2      (1,6,5)               0.0000000     
     3      (1,7,4)               0.0000000     
     4      (1,7,5)               0.0000000     
     5      (1,8,4)               0.0000000     
     6      (1,8,5)               0.0000000     
     7      (1,9,4)               0.0000000     
     8      (1,9,5)               0.0000000     
     9      (1,10,4)              0.0000000     
     10     (1,10,5)              0.0000000     
 -----------------------------------------------




 SFR PACKAGE (SFR-1) FLOW RATES   PERIOD     15   STEP       15
 ----------------------------------------------------------------------------------------
   NUMBER   CELLID                    RATE       NAME                                    
 ----------------------------------------------------------------------------------------
     1      (1,1,1)               0.22868377     ALLREACHES                              
     2      (1,2,2)               0.35499870     ALLREACHES                              
     3      (1,3,3)               0.30357347     ALLREACHES                              
     4      (1,3,4)               0.28021936     ALLREACHES                              
     5      (1,4,5)               0.29960805     ALLREACHES                              
     6      (1,5,6)               0.22987955     ALLREACHES                              
     7      (1,6,6)               0.22936563     ALLREACHES                              
     8      (1,7,6)               0.22884928     ALLREACHES                              
     9      (1,8,6)               0.22833044     ALLREACHES                              
     10     (1,3,5)               2.12214188E-02 ALLREACHES                              
     11     (1,3,6)               1.99133007E-02 ALLREACHES                              
     12     (1,3,7)               1.67956407E-02 ALLREACHES                              
     13     (1,4,8)               2.07205450E-02 ALLREACHES                              
     14     (1,5,8)               1.57905563E-02 ALLREACHES                              
     15     (1,6,8)               5.93648362E-03 ALLREACHES                              
     16     (1,5,10)              9.09197693E-02 ALLREACHES                              
     17     (1,5,9)               0.18157734     ALLREACHES                              
     18     (1,6,8)               0.12689514     ALLREACHES                              
     19     (1,6,8)               0.17138468     ALLREACHES                              
     20     (1,7,7)               0.21384773     ALLREACHES                              
     21     (1,8,7)               0.14943953     ALLREACHES                              
     22     (1,8,6)               0.10661428     ALLREACHES                              
     23     (1,9,6)               0.24837387     ALLREACHES                              
     24     (1,12,7)              2.55415257E-02 ALLREACHES                              
     25     (1,13,7)              2.80916190E-02 ALLREACHES                              
     26     (1,14,9)              2.6922030      ALLREACHES                              
     27     (1,13,8)              2.6824902      ALLREACHES                              
     28     (1,13,7)              2.6727412      ALLREACHES                              
     29     (1,13,6)             -2.0146853      ALLREACHES                              
     30     (1,13,2)             -3.2982252      ALLREACHES                              
     31     (1,13,1)             -1.3193628      ALLREACHES                              
 ----------------------------------------------------------------------------------------




 LAK PACKAGE (LAK-1) FLOW RATES   PERIOD     15   STEP       15
 -----------------------------------------------
   NUMBER   CELLID                    RATE      
 -----------------------------------------------
     1      (1,9,7)               8.18663460E-03
     2      (1,10,6)              1.05487631E-02
     3      (2,10,7)              0.95238925    
     4      (1,9,8)               5.72739716E-03
     5      (1,10,9)              1.05592322E-04
     6      (2,10,8)              0.92737563    
     7      (1,11,6)              1.13546049E-02
     8      (1,12,7)              1.05767366E-02
     9      (2,11,7)              0.95121665    
     10     (1,11,9)              2.62995146E-03
     11     (1,12,8)              1.01682540E-02
     12     (2,11,8)              0.92480122    
     13     (1,10,3)             -8.17107180E-04
     14     (1,11,2)             -1.26821863E-03
     15     (2,11,3)             -0.67789980    
     16     (1,10,4)             -1.28209351E-03
     17     (2,11,4)             -0.69810616    
     18     (1,10,5)             -3.18364026E-03
     19     (1,11,6)             -4.38498398E-03
     20     (2,11,5)             -0.72510560    
     21     (1,12,2)             -4.25409776E-03
     22     (2,12,3)             -0.64836025    
     23     (2,12,4)             -0.68233224    
     24     (1,12,6)             -6.01505353E-03
     25     (2,12,5)             -0.71728248    
     26     (1,13,2)             -1.18376500E-03
     27     (2,13,3)             -0.63678347    
     28     (2,13,4)             -0.67882706    
     29     (1,13,6)             -6.37535344E-03
     30     (2,13,5)             -0.71670045    
     31     (1,14,2)             -4.19377754E-03
     32     (1,15,3)              0.0000000     
     33     (2,14,3)             -0.65124452    
     34     (1,15,4)              0.0000000     
     35     (2,14,4)             -0.68568410    
     36     (1,14,6)             -3.55450343E-03
     37     (1,15,5)              0.0000000     
     38     (2,14,5)             -0.71944983    
 -----------------------------------------------




 SFR-1 PACKAGE - SUMMARY OF FLOWS FOR EACH CONTROL VOLUME   PERIOD     15   STEP       15
 --------------------------------------------------------------------------------------------------------------------------------------------------------------------------------------------------------
                                                                                                                                                                                               PERCENT   
   NUMBER   CELLID                  INFLOW      OUTFLOW        GWF        RAINFALL   EVAPORATION     RUNOFF     EXT INFLOW  EXT OUTFLOW    STORAGE      FROM MVR      TO MVR      IN - OUT    DIFFERENCE 
 --------------------------------------------------------------------------------------------------------------------------------------------------------------------------------------------------------
     1      (1,1,1)               0.0000      -24.771      -0.22868      0.0000       0.0000       0.0000       25.000       0.0000       0.0000       0.0000       0.0000       0.0000       0.0000     
     2      (1,2,2)               24.771      -24.416      -0.35500      0.0000       0.0000       0.0000       0.0000       0.0000       0.0000       0.0000       0.0000       0.0000       0.0000     
     3      (1,3,3)               24.416      -24.113      -0.30357      0.0000       0.0000       0.0000       0.0000       0.0000       0.0000       0.0000       0.0000       0.0000       0.0000     
     4      (1,3,4)               24.113      -23.833      -0.28022      0.0000       0.0000       0.0000       0.0000       0.0000       0.0000       0.0000       0.0000       0.0000       0.0000     
     5      (1,4,5)               13.833      -13.533      -0.29961      0.0000       0.0000       0.0000       0.0000       0.0000       0.0000       0.0000       0.0000       0.0000       0.0000     
     6      (1,5,6)               13.533      -13.303      -0.22988      0.0000       0.0000       0.0000       0.0000       0.0000       0.0000       0.0000       0.0000       0.0000       0.0000     
     7      (1,6,6)               13.303      -13.074      -0.22937      0.0000       0.0000       0.0000       0.0000       0.0000       0.0000       0.0000       0.0000       0.0000       0.0000     
     8      (1,7,6)               13.074      -12.845      -0.22885      0.0000       0.0000       0.0000       0.0000       0.0000       0.0000       0.0000       0.0000       0.0000       0.0000     
     9      (1,8,6)               12.845      -12.616      -0.22833      0.0000       0.0000       0.0000       0.0000       0.0000       0.0000       0.0000       0.0000       0.0000       0.0000     
     10     (1,3,5)               10.000      -9.9788      -2.12214E-02  0.0000       0.0000       0.0000       0.0000       0.0000       0.0000       0.0000       0.0000       0.0000       0.0000     
     11     (1,3,6)               9.9788      -9.9589      -1.99133E-02  0.0000       0.0000       0.0000       0.0000       0.0000       0.0000       0.0000       0.0000       0.0000       0.0000     
     12     (1,3,7)               9.9589      -9.9421      -1.67956E-02  0.0000       0.0000       0.0000       0.0000       0.0000       0.0000       0.0000       0.0000       0.0000       0.0000     
     13     (1,4,8)               9.9421      -9.9213      -2.07205E-02  0.0000       0.0000       0.0000       0.0000       0.0000       0.0000       0.0000       0.0000       0.0000       0.0000     
     14     (1,5,8)               9.9213      -9.9056      -1.57906E-02  0.0000       0.0000       0.0000       0.0000       0.0000       0.0000       0.0000       0.0000       0.0000       0.0000     
     15     (1,6,8)               9.9056      -9.8996      -5.93648E-03  0.0000       0.0000       0.0000       0.0000       0.0000       0.0000       0.0000       0.0000       0.0000       0.0000     
     16     (1,5,10)              0.0000      -9.9091      -9.09198E-02  0.0000       0.0000       0.0000       10.000       0.0000       0.0000       0.0000       0.0000       0.0000       0.0000     
     17     (1,5,9)               9.9091      -9.7275      -0.18158      0.0000       0.0000       0.0000       0.0000       0.0000       0.0000       0.0000       0.0000       0.0000       0.0000     
     18     (1,6,8)               9.7275      -9.6006      -0.12690      0.0000       0.0000       0.0000       0.0000       0.0000       0.0000       0.0000       0.0000       0.0000       0.0000     
     19     (1,6,8)               19.500      -19.329      -0.17138      0.0000       0.0000       0.0000       0.0000       0.0000       0.0000       0.0000       0.0000       0.0000       0.0000     
     20     (1,7,7)               19.329      -19.115      -0.21385      0.0000       0.0000       0.0000       0.0000       0.0000       0.0000       0.0000       0.0000       0.0000       0.0000     
     21     (1,8,7)               19.115      -18.966      -0.14944      0.0000       0.0000       0.0000       0.0000       0.0000       0.0000       0.0000       0.0000       0.0000       0.0000     
     22     (1,8,6)               18.966      -18.859      -0.10661      0.0000       0.0000       0.0000       0.0000       0.0000       0.0000       0.0000       0.0000       0.0000       0.0000     
     23     (1,9,6)               31.475       0.0000      -0.24837      0.0000       0.0000       0.0000       0.0000       0.0000       0.0000       0.0000      -31.227       0.0000       0.0000     
     24     (1,12,7)              0.0000      -32.874      -2.55415E-02  0.0000       0.0000       0.0000       0.0000       0.0000       0.0000       32.900       0.0000       0.0000       0.0000     
     25     (1,13,7)              32.874      -32.846      -2.80916E-02  0.0000       0.0000       0.0000       0.0000       0.0000       0.0000       0.0000       0.0000       0.0000       0.0000     
     26     (1,14,9)              0.0000      -147.31      -2.6922       0.0000       0.0000       0.0000       150.00       0.0000       0.0000       0.0000       0.0000       0.0000       0.0000     
     27     (1,13,8)              147.31      -144.63      -2.6825       0.0000       0.0000       0.0000       0.0000       0.0000       0.0000       0.0000       0.0000       0.0000       0.0000     
     28     (1,13,7)              144.63      -141.95      -2.6727       0.0000       0.0000       0.0000       0.0000       0.0000       0.0000       0.0000       0.0000       0.0000       0.0000     
     29     (1,13,6)              174.80       0.0000       2.0147       0.0000       0.0000       0.0000       0.0000      -1.29630E-08  0.0000       0.0000      -176.81       0.0000       0.0000     
     30     (1,13,2)              0.0000      -191.57       3.2982       0.0000       0.0000       0.0000       0.0000       0.0000       0.0000       188.27       0.0000       0.0000       0.0000     
     31     (1,13,1)              191.57       0.0000       1.3194       0.0000       0.0000       0.0000       0.0000      -199.47       0.0000       6.5819       0.0000       0.0000       0.0000     
 --------------------------------------------------------------------------------------------------------------------------------------------------------------------------------------------------------



 LAK-1 PACKAGE - SUMMARY OF FLOWS FOR EACH CONTROL VOLUME   PERIOD     15   STEP       15
 -----------------------------------------------------------------------------------------------------------------------------------------------------------------------------------
                                                                                                                                                                          PERCENT   
   NUMBER       GWF        RAINFALL   EVAPORATION     RUNOFF     EXT INFLOW   WITHDRAWAL  EXT OUTFLOW    STORAGE      CONSTANT     FROM MVR      TO MVR      IN - OUT    DIFFERENCE 
 -----------------------------------------------------------------------------------------------------------------------------------------------------------------------------------
     1      -3.8151       5.0000      -1.0000       1.5000       0.0000       0.0000       0.0000      -1.23595E-02  0.0000       31.227      -32.900       2.82461E-08  7.48696E-08
     2       8.2743       3.6000      -3.3000       3.0000       0.0000      -0.12000      5.32707E-08  1.62124E-03  0.0000       176.81      -188.27      -7.32365E-07 -3.82059E-07
 -----------------------------------------------------------------------------------------------------------------------------------------------------------------------------------



 WATER MOVER PACKAGE (MVR) FLOW RATES   PERIOD     15   STEP       15
 --------------------------------------------------------------------------------------------------------------------------
                                               PROVIDER  AVAILABLE   PROVIDED                                     RECEIVER 
   NUMBER           PROVIDER LOCATION             ID        RATE       RATE            RECEIVER LOCATION             ID    
 --------------------------------------------------------------------------------------------------------------------------
     1                  E13/SFR-1                 23      31.2       31.2                  E13/LAK-1                 1     
     2                  E13/LAK-1                 1       32.9       32.9                  E13/SFR-1                 24    
     3                  E13/SFR-1                 29      177.       177.                  E13/LAK-1                 2     
     4                  E13/LAK-1                 2       188.       188.                  E13/SFR-1                 30    
     5                  E13/UZF-1                 1       0.00       0.00                  E13/SFR-1                 1     
     6                  E13/UZF-1                 2       0.00       0.00                  E13/SFR-1                 2     
     7                  E13/UZF-1                 3       0.00       0.00                  E13/SFR-1                 2     
     8                  E13/UZF-1                 4       0.00       0.00                  E13/SFR-1                 2     
     9                  E13/UZF-1                 5       0.00       0.00                  E13/SFR-1                 3     
     10                 E13/UZF-1                 6       0.00       0.00                  E13/SFR-1                 11    
     11                 E13/UZF-1                 7       0.00       0.00                  E13/SFR-1                 12    
     12                 E13/UZF-1                 8       0.00       0.00                  E13/SFR-1                 12    
     13                 E13/UZF-1                 9       0.00       0.00                  E13/SFR-1                 2     
     14                 E13/UZF-1                 10      0.00       0.00                  E13/SFR-1                 3     
     15                 E13/UZF-1                 11      0.00       0.00                  E13/SFR-1                 4     
     16                 E13/UZF-1                 12      0.00       0.00                  E13/SFR-1                 10    
     17                 E13/UZF-1                 13      0.00       0.00                  E13/SFR-1                 11    
     18                 E13/UZF-1                 14      0.00       0.00                  E13/SFR-1                 12    
     19                 E13/UZF-1                 15      0.00       0.00                  E13/SFR-1                 13    
     20                 E13/UZF-1                 16      0.00       0.00                  E13/LAK-1                 2     
     21                 E13/UZF-1                 17      0.00       0.00                  E13/LAK-1                 2     
     22                 E13/UZF-1                 18      0.00       0.00                  E13/SFR-1                 3     
     23                 E13/UZF-1                 19      0.00       0.00                  E13/SFR-1                 4     
     24                 E13/UZF-1                 20      0.00       0.00                  E13/SFR-1                 5     
     25                 E13/UZF-1                 21      0.00       0.00                  E13/SFR-1                 6     
     26                 E13/UZF-1                 22      0.00       0.00                  E13/SFR-1                 6     
     27                 E13/UZF-1                 23      0.00       0.00                  E13/SFR-1                 13    
     28                 E13/UZF-1                 24      0.00       0.00                  E13/SFR-1                 17    
     29                 E13/UZF-1                 25      0.00       0.00                  E13/LAK-1                 2     
     30                 E13/UZF-1                 26      0.00       0.00                  E13/LAK-1                 2     
     31                 E13/UZF-1                 27      0.00       0.00                  E13/LAK-1                 2     
     32                 E13/UZF-1                 28      0.00       0.00                  E13/LAK-1                 2     
     33                 E13/UZF-1                 29      0.00       0.00                  E13/SFR-1                 5     
     34                 E13/UZF-1                 30      0.00       0.00                  E13/SFR-1                 6     
     35                 E13/UZF-1                 31      0.00       0.00                  E13/SFR-1                 6     
     36                 E13/UZF-1                 32      0.00       0.00                  E13/SFR-1                 14    
     37                 E13/UZF-1                 33      0.00       0.00                  E13/SFR-1                 17    
     38                 E13/UZF-1                 34      0.00       0.00                  E13/SFR-1                 16    
     39                 E13/UZF-1                 35      0.00       0.00                  E13/LAK-1                 2     
     40                 E13/UZF-1                 36      0.00       0.00                  E13/LAK-1                 2     
     41                 E13/UZF-1                 37      0.00       0.00                  E13/LAK-1                 2     
     42                 E13/UZF-1                 38      0.00       0.00                  E13/LAK-1                 2     
     43                 E13/UZF-1                 39      0.00       0.00                  E13/LAK-1                 2     
     44                 E13/UZF-1                 40      0.00       0.00                  E13/SFR-1                 7     
     45                 E13/UZF-1                 41      0.00       0.00                  E13/SFR-1                 7     
     46                 E13/UZF-1                 42      0.00       0.00                  E13/SFR-1                 19    
     47                 E13/UZF-1                 43      0.00       0.00                  E13/SFR-1                 17    
     48                 E13/UZF-1                 44      0.00       0.00                  E13/SFR-1                 16    
     49                 E13/UZF-1                 45      0.00       0.00                  E13/LAK-1                 2     
     50                 E13/UZF-1                 46      0.00       0.00                  E13/LAK-1                 2     
     51                 E13/UZF-1                 47      0.00       0.00                  E13/LAK-1                 2     
     52                 E13/UZF-1                 48      0.00       0.00                  E13/LAK-1                 2     
     53                 E13/UZF-1                 49      0.00       0.00                  E13/LAK-1                 2     
     54                 E13/UZF-1                 50      0.00       0.00                  E13/SFR-1                 8     
     55                 E13/UZF-1                 51      0.00       0.00                  E13/SFR-1                 20    
     56                 E13/UZF-1                 52      0.00       0.00                  E13/SFR-1                 20    
     57                 E13/UZF-1                 53      0.00       0.00                  E13/SFR-1                 20    
     58                 E13/UZF-1                 54      0.00       0.00                  E13/LAK-1                 2     
     59                 E13/UZF-1                 55      0.00       0.00                  E13/LAK-1                 2     
     60                 E13/UZF-1                 56      0.00       0.00                  E13/LAK-1                 2     
     61                 E13/UZF-1                 57      0.00       0.00                  E13/LAK-1                 2     
     62                 E13/UZF-1                 58      0.00       0.00                  E13/SFR-1                 9     
     63                 E13/UZF-1                 59      0.00       0.00                  E13/SFR-1                 21    
     64                 E13/UZF-1                 60      0.00       0.00                  E13/SFR-1                 21    
     65                 E13/UZF-1                 61      0.00       0.00                  E13/SFR-1                 21    
     66                 E13/UZF-1                 62      0.00       0.00                  E13/LAK-1                 2     
     67                 E13/UZF-1                 63      0.00       0.00                  E13/LAK-1                 2     
     68                 E13/UZF-1                 64      0.00       0.00                  E13/LAK-1                 2     
     69                 E13/UZF-1                 65      0.00       0.00                  E13/LAK-1                 2     
     70                 E13/UZF-1                 66      0.00       0.00                  E13/SFR-1                 23    
     71                 E13/UZF-1                 67      0.00       0.00                  E13/LAK-1                 1     
     72                 E13/UZF-1                 68      0.00       0.00                  E13/LAK-1                 1     
     73                 E13/UZF-1                 69      0.00       0.00                  E13/LAK-1                 1     
     74                 E13/UZF-1                 70      0.00       0.00                  E13/LAK-1                 2     
     75                 E13/UZF-1                 71      0.00       0.00                  E13/LAK-1                 2     
     76                 E13/UZF-1                 72      0.00       0.00                  E13/LAK-1                 2     
     77                 E13/UZF-1                 73      0.00       0.00                  E13/LAK-1                 2     
     78                 E13/UZF-1                 74      0.00       0.00                  E13/LAK-1                 1     
     79                 E13/UZF-1                 75      0.00       0.00                  E13/LAK-1                 1     
     80                 E13/UZF-1                 76      0.00       0.00                  E13/LAK-1                 1     
     81                 E13/UZF-1                 77      0.00       0.00                  E13/LAK-1                 2     
     82                 E13/UZF-1                 78      0.00       0.00                  E13/SFR-1                 9     
     83                 E13/UZF-1                 79      0.00       0.00                  E13/LAK-1                 1     
     84                 E13/UZF-1                 80      0.00       0.00                  E13/SFR-1                 31    
     85                 E13/UZF-1                 81      0.00       0.00                  E13/SFR-1                 30    
     86                 E13/UZF-1                 82      0.00       0.00                  E13/SFR-1                 9     
     87                 E13/UZF-1                 83      0.00       0.00                  E13/SFR-1                 24    
     88                 E13/UZF-1                 84      0.00       0.00                  E13/LAK-1                 1     
     89                 E13/UZF-1                 85      0.00       0.00                  E13/LAK-1                 1     
     90                 E13/UZF-1                 86      6.58       6.58                  E13/SFR-1                 31    
     91                 E13/UZF-1                 87      0.00       0.00                  E13/SFR-1                 30    
     92                 E13/UZF-1                 88      0.00       0.00                  E13/SFR-1                 29    
     93                 E13/UZF-1                 89      0.00       0.00                  E13/SFR-1                 28    
     94                 E13/UZF-1                 90      0.00       0.00                  E13/SFR-1                 27    
     95                 E13/UZF-1                 91      0.00       0.00                  E13/SFR-1                 26    
     96                 E13/UZF-1                 92      0.00       0.00                  E13/SFR-1                 30    
     97                 E13/UZF-1                 93      0.00       0.00                  E13/LAK-1                 2     
     98                 E13/UZF-1                 94      0.00       0.00                  E13/SFR-1                 28    
     99                 E13/UZF-1                 95      0.00       0.00                  E13/SFR-1                 27    
    100                 E13/UZF-1                 96      0.00       0.00                  E13/SFR-1                 26    
    101                 E13/UZF-1                 97      0.00       0.00                  E13/LAK-1                 2     
    102                 E13/UZF-1                 98      0.00       0.00                  E13/LAK-1                 2     
    103                 E13/UZF-1                 99      0.00       0.00                  E13/LAK-1                 2     
    104                 E13/UZF-1                100      0.00       0.00                  E13/LAK-1                 2     
    105                 E13/WEL-1                 1       0.00       0.00                  E13/UZF-1                 38    
    106                 E13/WEL-1                 2       0.00       0.00                  E13/UZF-1                 39    
    107                 E13/WEL-1                 3       0.00       0.00                  E13/UZF-1                 48    
    108                 E13/WEL-1                 4       0.00       0.00                  E13/UZF-1                 49    
    109                 E13/WEL-1                 5       0.00       0.00                  E13/UZF-1                 56    
    110                 E13/WEL-1                 6       0.00       0.00                  E13/UZF-1                 57    
    111                 E13/WEL-1                 7       0.00       0.00                  E13/UZF-1                 64    
    112                 E13/WEL-1                 8       0.00       0.00                  E13/UZF-1                 65    
    113                 E13/WEL-1                 9       0.00       0.00                  E13/UZF-1                 72    
    114                 E13/WEL-1                 10      0.00       0.00                  E13/UZF-1                 73    
 --------------------------------------------------------------------------------------------------------------------------



 SFR PACKAGE (SFR-1) STAGES FOR EACH CONTROL VOLUME   PERIOD     15   STEP       15
 ------------------------------------------------------------------------------------------------------------------------------------------------------
                                                                                                                               STREAMBED    STREAMBED  
 NAME                                       NUMBER   CELLID                  STAGE        DEPTH        WIDTH       GWF HEAD   CONDUCTANCE    GRADIENT  
 ------------------------------------------------------------------------------------------------------------------------------------------------------
 ALLREACHES                                   1      (1,1,1)               1094.3       1.2349       12.000       1019.8       5.40000E-02  1.4116     
 ALLREACHES                                   2      (1,2,2)               1089.3       1.2262       12.000       1020.4       8.40000E-02  1.4087     
 ALLREACHES                                   3      (1,3,3)               1083.6       1.2163       12.000       1020.4       7.20000E-02  1.4054     
 ALLREACHES                                   4      (1,3,4)               1078.6       1.2075       12.000       1020.4       6.66000E-02  1.4025     
 ALLREACHES                                   5      (1,4,5)               1072.8       0.84113      12.000       1020.4       7.80000E-02  1.2804     
 ALLREACHES                                   6      (1,5,6)               1067.3       0.83133      12.000       1020.1       6.00000E-02  1.2771     
 ALLREACHES                                   7      (1,6,6)               1062.6       0.82276      12.000       1019.3       6.00000E-02  1.2743     
 ALLREACHES                                   8      (1,7,6)               1057.9       0.81415      12.000       1019.0       6.00000E-02  1.2714     
 ALLREACHES                                   9      (1,8,6)               1053.2       0.80551      12.000       1018.9       6.00000E-02  1.2685     
 ALLREACHES                                   10     (1,3,5)               1074.6       0.93630      9.6364       1019.8       7.22727E-03  1.4681     
 ALLREACHES                                   11     (1,3,6)               1071.9       0.98022      8.9091       1020.0       6.68182E-03  1.4901     
 ALLREACHES                                   12     (1,3,7)               1069.3       1.0277       8.2182       1020.0       5.54727E-03  1.5139     
 ALLREACHES                                   13     (1,4,8)               1066.5       1.0884       7.4545       1019.7       6.70909E-03  1.5442     
 ALLREACHES                                   14     (1,5,8)               1063.6       1.1639       6.6545       1018.8       4.99091E-03  1.5819     
 ALLREACHES                                   15     (1,6,8)               1061.8       1.2200       6.1455       1019.4       1.84364E-03  1.6100     
 ALLREACHES                                   16     (1,5,10)              1078.4       0.63679      10.000       1019.7       2.50000E-02  1.2123     
 ALLREACHES                                   17     (1,5,9)               1071.5       0.63155      10.000       1020.0       5.00000E-02  1.2105     
 ALLREACHES                                   18     (1,6,8)               1063.8       0.62558      10.000       1019.4       3.50000E-02  1.2085     
 ALLREACHES                                   19     (1,6,8)               1060.0       1.2846       10.000       1019.4       4.00000E-02  1.4282     
 ALLREACHES                                   20     (1,7,7)               1056.9       1.2770       10.000       1019.1       5.00000E-02  1.4257     
 ALLREACHES                                   21     (1,8,7)               1054.1       1.2697       10.000       1019.0       3.50000E-02  1.4232     
 ALLREACHES                                   22     (1,8,6)               1052.1       1.2646       10.000       1018.9       2.50000E-02  1.4215     
 ALLREACHES                                   23     (1,9,6)               1046.6       1.1396       12.000       1018.5       6.00000E-02  1.3799     
 ALLREACHES                                   24     (1,12,7)              1037.7       1.2569       12.000       1020.1       6.00000E-03  1.4190     
 ALLREACHES                                   25     (1,13,7)              1030.2       1.2563       12.000       1023.0       6.60000E-03  1.4188     
 ALLREACHES                                   26     (1,14,9)              1034.8       1.4870       60.000       1027.5       0.60000      1.4957     
 ALLREACHES                                   27     (1,13,8)              1031.5       1.4708       60.000       1024.8       0.60000      1.4903     
 ALLREACHES                                   28     (1,13,7)              1028.1       1.4546       60.000       1023.0       0.60000      1.4849     
 ALLREACHES                                   29     (1,13,6)              1013.9       0.90956      60.000       1017.3       0.60000     -1.1193     
 ALLREACHES                                   30     (1,13,2)              998.30       1.4264       60.000       1003.8       0.60000     -1.8323     
 ALLREACHES                                   31     (1,13,1)              993.34       1.4661       60.000       997.01       0.36000     -1.2216     
 ------------------------------------------------------------------------------------------------------------------------------------------------------



 LAK PACKAGE (LAK-1) STAGES FOR EACH CONTROL VOLUME   PERIOD     15   STEP       15
 --------------------------------------------------------------
   NUMBER      STAGE     SURFACE AREA WETTED AREA     VOLUME   
 --------------------------------------------------------------
     1       1041.3       1.00000E+08  1.01383E+08  4.27576E+09
     2       1001.4       3.00000E+08  3.01465E+08  5.30070E+09
 --------------------------------------------------------------



 HEAD WILL BE SAVED ON UNIT 1026 AT END OF TIME STEP   15, STRESS PERIOD   15


  SFR-1 BUDGET FOR ENTIRE MODEL AT END OF TIME STEP   15, STRESS PERIOD  15
  ------------------------------------------------------------------------------

     CUMULATIVE SFR-1      L**3       RATES FOR THIS TIME STEP      L**3/T
     ------------------                 ------------------------

           IN:                                      IN:
           ---                                      ---
                 GWF =   239504030.2207                   GWF =           6.6323
            RAINFALL =           0.0000              RAINFALL =           0.0000
         EVAPORATION =           0.0000           EVAPORATION =           0.0000
              RUNOFF =           0.0000                RUNOFF =           0.0000
          EXT-INFLOW =  7292700000.0000            EXT-INFLOW =         185.0000
         EXT-OUTFLOW =       1.2518E-02           EXT-OUTFLOW =           0.0000
             STORAGE =           0.0000               STORAGE =           0.0000
            FROM-MVR =  8910565743.9022              FROM-MVR =         227.7506
              TO-MVR =           0.0000                TO-MVR =           0.0000

            TOTAL IN = 16442769774.1354              TOTAL IN =         419.3829

          OUT:                                     OUT:
          ----                                     ----
                 GWF =   468070992.5381                   GWF =          11.8740
            RAINFALL =           0.0000              RAINFALL =           0.0000
         EVAPORATION =           0.0000           EVAPORATION =           0.0000
              RUNOFF =           0.0000                RUNOFF =           0.0000
          EXT-INFLOW =           0.0000            EXT-INFLOW =           0.0000
         EXT-OUTFLOW =  7793998501.2023           EXT-OUTFLOW =         199.4686
             STORAGE =           0.0000               STORAGE =           0.0000
            FROM-MVR =           0.0000              FROM-MVR =           0.0000
              TO-MVR =  8180700280.3949                TO-MVR =         208.0403

           TOTAL OUT = 16442769774.1354             TOTAL OUT =         419.3829

            IN - OUT =       3.8147E-06              IN - OUT =           0.0000

 PERCENT DISCREPANCY =           0.00     PERCENT DISCREPANCY =           0.00



  LAK-1 BUDGET FOR ENTIRE MODEL AT END OF TIME STEP   15, STRESS PERIOD  15
  ------------------------------------------------------------------------------

     CUMULATIVE LAK-1      L**3       RATES FOR THIS TIME STEP      L**3/T
     ------------------                 ------------------------

           IN:                                      IN:
           ---                                      ---
                 GWF =   305357822.1802                   GWF =           8.2743
            RAINFALL =   339012000.0000              RAINFALL =           8.6000
         EVAPORATION =           0.0000           EVAPORATION =           0.0000
              RUNOFF =   177390000.0000                RUNOFF =           4.5000
          EXT-INFLOW =           0.0000            EXT-INFLOW =           0.0000
          WITHDRAWAL =           0.0000            WITHDRAWAL =           0.0000
         EXT-OUTFLOW =           1.4164           EXT-OUTFLOW =       5.3271E-08
             STORAGE =      320256.5145               STORAGE =       1.6212E-03
            CONSTANT =           0.0000              CONSTANT =           0.0000
            FROM-MVR =  8180700280.3949              FROM-MVR =         208.0403
              TO-MVR =           0.0000                TO-MVR =           0.0000

            TOTAL IN =  9002780360.5061              TOTAL IN =         229.4162

          OUT:                                     OUT:
          ----                                     ----
                 GWF =   158306916.1854                   GWF =           3.8151
            RAINFALL =           0.0000              RAINFALL =           0.0000
         EVAPORATION =   169506000.0000           EVAPORATION =           4.3000
              RUNOFF =           0.0000                RUNOFF =           0.0000
          EXT-INFLOW =           0.0000            EXT-INFLOW =           0.0000
          WITHDRAWAL =     4730400.0000            WITHDRAWAL =           0.1200
         EXT-OUTFLOW =           2.1955           EXT-OUTFLOW =           0.0000
             STORAGE =     3493825.8037               STORAGE =       1.2359E-02
            CONSTANT =           0.0000              CONSTANT =           0.0000
            FROM-MVR =           0.0000              FROM-MVR =           0.0000
              TO-MVR =  8666743220.8280                TO-MVR =         221.1688

           TOTAL OUT =  9002780365.0126             TOTAL OUT =         229.4162

            IN - OUT =          -4.5065              IN - OUT =      -7.0412E-07

 PERCENT DISCREPANCY =          -0.00     PERCENT DISCREPANCY =          -0.00



  UZF-1 BUDGET FOR ENTIRE MODEL AT END OF TIME STEP   15, STRESS PERIOD  15
  ------------------------------------------------------------------------------

     CUMULATIVE UZF-1      L**3       RATES FOR THIS TIME STEP      L**3/T
     ------------------                 ------------------------

           IN:                                      IN:
           ---                                      ---
                 GWF =           0.0000                   GWF =           0.0000
        INFILTRATION =  4034283271.2000          INFILTRATION =          76.5000
             REJ-INF =           0.0000               REJ-INF =           0.0000
                UZET =           0.0000                  UZET =           0.0000
             STORAGE =  1567332431.3751               STORAGE =          11.5120
            FROM-MVR =   201042000.0000              FROM-MVR =           0.0000
      REJ-INF-TO-MVR =           0.0000        REJ-INF-TO-MVR =           0.0000

            TOTAL IN =  5802657702.5751              TOTAL IN =          88.0120

          OUT:                                     OUT:
          ----                                     ----
                 GWF =   937479738.1319                   GWF =          27.4041
        INFILTRATION =           0.0000          INFILTRATION =           0.0000
             REJ-INF =          26.4168               REJ-INF =       5.1815E-08
                UZET =   819517208.9717                  UZET =          21.7419
             STORAGE =  4031945895.6820               STORAGE =          38.6160
            FROM-MVR =           0.0000              FROM-MVR =           0.0000
      REJ-INF-TO-MVR =    13714771.7067        REJ-INF-TO-MVR =           0.2500

           TOTAL OUT =  5802657640.9090             TOTAL OUT =          88.0120

            IN - OUT =          61.6661              IN - OUT =       1.5705E-06

 PERCENT DISCREPANCY =           0.00     PERCENT DISCREPANCY =           0.00



  WATER MOVER BUDGET FOR ENTIRE MODEL AT END OF TIME STEP   15, STRESS PERIOD  15
  ------------------------------------------------------------------------------

     CUMULATIVE WATER MOVER      L**3       RATES FOR THIS TIME STEP      L**3/T
     ------------------                 ------------------------

           IN:                                      IN:
           ---                                      ---
               UZF-1 =   243822523.0742                 UZF-1 =           6.5819
               SFR-1 =  8180700280.3949                 SFR-1 =         208.0403
               LAK-1 =  8666743220.8280                 LAK-1 =         221.1688
               WEL-1 =   201042000.0000                 WEL-1 =           0.0000

            TOTAL IN = 17292308024.2971              TOTAL IN =         435.7909

          OUT:                                     OUT:
          ----                                     ----
               UZF-1 =   201042000.0000                 UZF-1 =           0.0000
               SFR-1 =  8910565743.9022                 SFR-1 =         227.7506
               LAK-1 =  8180700280.3949                 LAK-1 =         208.0403
               WEL-1 =           0.0000                 WEL-1 =           0.0000

           TOTAL OUT = 17292308024.2971             TOTAL OUT =         435.7909

            IN - OUT =      -3.8147E-06              IN - OUT =           0.0000

 PERCENT DISCREPANCY =          -0.00     PERCENT DISCREPANCY =           0.00



  VOLUME BUDGET FOR ENTIRE MODEL AT END OF TIME STEP   15, STRESS PERIOD  15
  ---------------------------------------------------------------------------------------------------

     CUMULATIVE VOLUME      L**3       RATES FOR THIS TIME STEP      L**3/T          PACKAGE NAME    
     ------------------                 ------------------------                     ----------------

           IN:                                      IN:
           ---                                      ---
              STO-SS =      844728.3069                STO-SS =       5.5228E-03     STORAGE                          
              STO-SY =   261517382.7593                STO-SY =           1.6931     STORAGE                          
                 WEL =           0.0000                   WEL =           0.0000     WEL-1                            
          WEL-TO-MVR =           0.0000            WEL-TO-MVR =           0.0000     WEL-1                            
                 GHB =    27568973.0697                   GHB =           0.6657     GHB_0                            
                 SFR =   468070992.5381                   SFR =          11.8740     SFR-1                            
                 LAK =   158306916.1854                   LAK =           3.8151     LAK-1                            
           UZF-GWRCH =   937479738.1319             UZF-GWRCH =          27.4041     UZF-1                            
             UZF-GWD =           0.0000               UZF-GWD =           0.0000     UZF-1                            
      UZF-GWD TO-MVR =           0.0000        UZF-GWD TO-MVR =           0.0000     UZF-1                            
            UZF-GWET =           0.0000              UZF-GWET =           0.0000     UZF-1                            

            TOTAL IN =  1853788730.9913              TOTAL IN =          45.4576

          OUT:                                     OUT:
          ----                                     ----
              STO-SS =     3990139.5254                STO-SS =       7.8592E-02     STORAGE                          
              STO-SY =   838006496.0007                STO-SY =          23.1997     STORAGE                          
                 WEL =           0.0000                   WEL =           0.0000     WEL-1                            
          WEL-TO-MVR =   201042000.0000            WEL-TO-MVR =           0.0000     WEL-1                            
                 GHB =    13488074.6557                   GHB =           0.3422     GHB_0                            
                 SFR =   239504321.4782                   SFR =           6.6323     SFR-1                            
                 LAK =   305357822.1802                   LAK =           8.2743     LAK-1                            
           UZF-GWRCH =           0.0000             UZF-GWRCH =           0.0000     UZF-1                            
             UZF-GWD =         103.8795               UZF-GWD =       1.3124E-06     UZF-1                            
      UZF-GWD TO-MVR =   230107751.3675        UZF-GWD TO-MVR =           6.3319     UZF-1                            
            UZF-GWET =    22282222.4733              UZF-GWET =           0.5986     UZF-1                            

           TOTAL OUT =  1853778931.5605             TOTAL OUT =          45.4575

            IN - OUT =        9799.4309              IN - OUT =       3.8206E-05

 PERCENT DISCREPANCY =           0.00     PERCENT DISCREPANCY =           0.00




         TIME SUMMARY AT END OF TIME STEP   15 IN STRESS PERIOD   15
                    SECONDS     MINUTES      HOURS       DAYS        YEARS
                    -----------------------------------------------------------
   TIME STEP LENGTH 1.75200E+05  2920.0      48.667      2.0278     5.55175E-03
 STRESS PERIOD TIME 2.62800E+06  43800.      730.00      30.417     8.32763E-02
         TOTAL TIME 3.94200E+07 6.57000E+05  10950.      456.25      1.2491    


end timestep


start timestep kper="16" kstp="1" mode="normal"


 OUTPUT CONTROL FOR STRESS PERIOD 16 IS REPEATED USING SETTINGS FROM A PREVIOUS STRESS PERIOD.


 STRESS PERIOD 16 IS TRANSIENT


 REUSING MVRS FROM LAST STRESS PERIOD

 REUSING SFRS FROM LAST STRESS PERIOD

 REUSING LAKS FROM LAST STRESS PERIOD

end timestep


start timestep kper="16" kstp="2" mode="normal"


end timestep


start timestep kper="16" kstp="3" mode="normal"


end timestep


start timestep kper="16" kstp="4" mode="normal"


end timestep


start timestep kper="16" kstp="5" mode="normal"


end timestep


start timestep kper="16" kstp="6" mode="normal"


end timestep


start timestep kper="16" kstp="7" mode="normal"


end timestep


start timestep kper="16" kstp="8" mode="normal"


end timestep


start timestep kper="16" kstp="9" mode="normal"


end timestep


start timestep kper="16" kstp="10" mode="normal"


end timestep


start timestep kper="16" kstp="11" mode="normal"


end timestep


start timestep kper="16" kstp="12" mode="normal"


end timestep


start timestep kper="16" kstp="13" mode="normal"


end timestep


start timestep kper="16" kstp="14" mode="normal"


end timestep


start timestep kper="16" kstp="15" mode="normal"

 UBDSV1 SAVING           STO-SS ON UNIT   1025 AT TIME STEP     15, STRESS PERIOD     16
 UBDSV1 SAVING           STO-SY ON UNIT   1025 AT TIME STEP     15, STRESS PERIOD     16
 UBDSV1 SAVING     FLOW-JA-FACE ON UNIT   1025 AT TIME STEP     15, STRESS PERIOD     16
 UBDSV06 SAVING       DATA-SPDIS IN MODEL E13              PACKAGE NPF             CONNECTED TO MODEL E13              PACKAGE NPF              ON UNIT   1025 AT TIME STEP     15, STRESS PERIOD     16
 UBDSV06 SAVING              WEL IN MODEL E13              PACKAGE E13             CONNECTED TO MODEL E13              PACKAGE WEL-1            ON UNIT   1025 AT TIME STEP     15, STRESS PERIOD     16
 UBDSV06 SAVING       WEL-TO-MVR IN MODEL E13              PACKAGE E13             CONNECTED TO MODEL E13              PACKAGE WEL-1            ON UNIT   1025 AT TIME STEP     15, STRESS PERIOD     16
 UBDSV06 SAVING              GHB IN MODEL E13              PACKAGE E13             CONNECTED TO MODEL E13              PACKAGE GHB_0            ON UNIT   1025 AT TIME STEP     15, STRESS PERIOD     16
 UBDSV06 SAVING              SFR IN MODEL E13              PACKAGE E13             CONNECTED TO MODEL E13              PACKAGE SFR-1            ON UNIT   1025 AT TIME STEP     15, STRESS PERIOD     16
 UBDSV06 SAVING              LAK IN MODEL E13              PACKAGE E13             CONNECTED TO MODEL E13              PACKAGE LAK-1            ON UNIT   1025 AT TIME STEP     15, STRESS PERIOD     16
 UBDSV06 SAVING        UZF-GWRCH IN MODEL E13              PACKAGE E13             CONNECTED TO MODEL E13              PACKAGE UZF-1            ON UNIT   1025 AT TIME STEP     15, STRESS PERIOD     16
 UBDSV06 SAVING          UZF-GWD IN MODEL E13              PACKAGE E13             CONNECTED TO MODEL E13              PACKAGE UZF-1            ON UNIT   1025 AT TIME STEP     15, STRESS PERIOD     16
 UBDSV06 SAVING   UZF-GWD TO-MVR IN MODEL E13              PACKAGE E13             CONNECTED TO MODEL E13              PACKAGE UZF-1            ON UNIT   1025 AT TIME STEP     15, STRESS PERIOD     16
 UBDSV06 SAVING         UZF-GWET IN MODEL E13              PACKAGE E13             CONNECTED TO MODEL E13              PACKAGE UZF-1            ON UNIT   1025 AT TIME STEP     15, STRESS PERIOD     16
 UBDSV06 SAVING     FLOW-JA-FACE IN MODEL E13              PACKAGE SFR-1           CONNECTED TO MODEL E13              PACKAGE SFR-1            ON UNIT   1017 AT TIME STEP     15, STRESS PERIOD     16
 UBDSV06 SAVING              GWF IN MODEL E13              PACKAGE SFR-1           CONNECTED TO MODEL E13              PACKAGE E13              ON UNIT   1017 AT TIME STEP     15, STRESS PERIOD     16
 UBDSV06 SAVING         RAINFALL IN MODEL E13              PACKAGE SFR-1           CONNECTED TO MODEL E13              PACKAGE SFR-1            ON UNIT   1017 AT TIME STEP     15, STRESS PERIOD     16
 UBDSV06 SAVING      EVAPORATION IN MODEL E13              PACKAGE SFR-1           CONNECTED TO MODEL E13              PACKAGE SFR-1            ON UNIT   1017 AT TIME STEP     15, STRESS PERIOD     16
 UBDSV06 SAVING           RUNOFF IN MODEL E13              PACKAGE SFR-1           CONNECTED TO MODEL E13              PACKAGE SFR-1            ON UNIT   1017 AT TIME STEP     15, STRESS PERIOD     16
 UBDSV06 SAVING       EXT-INFLOW IN MODEL E13              PACKAGE SFR-1           CONNECTED TO MODEL E13              PACKAGE SFR-1            ON UNIT   1017 AT TIME STEP     15, STRESS PERIOD     16
 UBDSV06 SAVING      EXT-OUTFLOW IN MODEL E13              PACKAGE SFR-1           CONNECTED TO MODEL E13              PACKAGE SFR-1            ON UNIT   1017 AT TIME STEP     15, STRESS PERIOD     16
 UBDSV06 SAVING          STORAGE IN MODEL E13              PACKAGE SFR-1           CONNECTED TO MODEL E13              PACKAGE SFR-1            ON UNIT   1017 AT TIME STEP     15, STRESS PERIOD     16
 UBDSV06 SAVING         FROM-MVR IN MODEL E13              PACKAGE SFR-1           CONNECTED TO MODEL E13              PACKAGE SFR-1            ON UNIT   1017 AT TIME STEP     15, STRESS PERIOD     16
 UBDSV06 SAVING           TO-MVR IN MODEL E13              PACKAGE SFR-1           CONNECTED TO MODEL E13              PACKAGE SFR-1            ON UNIT   1017 AT TIME STEP     15, STRESS PERIOD     16
 UBDSV06 SAVING              GWF IN MODEL E13              PACKAGE LAK-1           CONNECTED TO MODEL E13              PACKAGE E13              ON UNIT   1019 AT TIME STEP     15, STRESS PERIOD     16
 UBDSV06 SAVING         RAINFALL IN MODEL E13              PACKAGE LAK-1           CONNECTED TO MODEL E13              PACKAGE LAK-1            ON UNIT   1019 AT TIME STEP     15, STRESS PERIOD     16
 UBDSV06 SAVING      EVAPORATION IN MODEL E13              PACKAGE LAK-1           CONNECTED TO MODEL E13              PACKAGE LAK-1            ON UNIT   1019 AT TIME STEP     15, STRESS PERIOD     16
 UBDSV06 SAVING           RUNOFF IN MODEL E13              PACKAGE LAK-1           CONNECTED TO MODEL E13              PACKAGE LAK-1            ON UNIT   1019 AT TIME STEP     15, STRESS PERIOD     16
 UBDSV06 SAVING       EXT-INFLOW IN MODEL E13              PACKAGE LAK-1           CONNECTED TO MODEL E13              PACKAGE LAK-1            ON UNIT   1019 AT TIME STEP     15, STRESS PERIOD     16
 UBDSV06 SAVING       WITHDRAWAL IN MODEL E13              PACKAGE LAK-1           CONNECTED TO MODEL E13              PACKAGE LAK-1            ON UNIT   1019 AT TIME STEP     15, STRESS PERIOD     16
 UBDSV06 SAVING      EXT-OUTFLOW IN MODEL E13              PACKAGE LAK-1           CONNECTED TO MODEL E13              PACKAGE LAK-1            ON UNIT   1019 AT TIME STEP     15, STRESS PERIOD     16
 UBDSV06 SAVING          STORAGE IN MODEL E13              PACKAGE LAK-1           CONNECTED TO MODEL E13              PACKAGE LAK-1            ON UNIT   1019 AT TIME STEP     15, STRESS PERIOD     16
 UBDSV06 SAVING         CONSTANT IN MODEL E13              PACKAGE LAK-1           CONNECTED TO MODEL E13              PACKAGE LAK-1            ON UNIT   1019 AT TIME STEP     15, STRESS PERIOD     16
 UBDSV06 SAVING         FROM-MVR IN MODEL E13              PACKAGE LAK-1           CONNECTED TO MODEL E13              PACKAGE LAK-1            ON UNIT   1019 AT TIME STEP     15, STRESS PERIOD     16
 UBDSV06 SAVING           TO-MVR IN MODEL E13              PACKAGE LAK-1           CONNECTED TO MODEL E13              PACKAGE LAK-1            ON UNIT   1019 AT TIME STEP     15, STRESS PERIOD     16
 UBDSV06 SAVING     FLOW-JA-FACE IN MODEL E13              PACKAGE UZF-1           CONNECTED TO MODEL E13              PACKAGE UZF-1            ON UNIT   1021 AT TIME STEP     15, STRESS PERIOD     16
 UBDSV06 SAVING              GWF IN MODEL E13              PACKAGE UZF-1           CONNECTED TO MODEL E13              PACKAGE E13              ON UNIT   1021 AT TIME STEP     15, STRESS PERIOD     16
 UBDSV06 SAVING     INFILTRATION IN MODEL E13              PACKAGE UZF-1           CONNECTED TO MODEL E13              PACKAGE UZF-1            ON UNIT   1021 AT TIME STEP     15, STRESS PERIOD     16
 UBDSV06 SAVING          REJ-INF IN MODEL E13              PACKAGE UZF-1           CONNECTED TO MODEL E13              PACKAGE UZF-1            ON UNIT   1021 AT TIME STEP     15, STRESS PERIOD     16
 UBDSV06 SAVING             UZET IN MODEL E13              PACKAGE UZF-1           CONNECTED TO MODEL E13              PACKAGE UZF-1            ON UNIT   1021 AT TIME STEP     15, STRESS PERIOD     16
 UBDSV06 SAVING          STORAGE IN MODEL E13              PACKAGE UZF-1           CONNECTED TO MODEL E13              PACKAGE UZF-1            ON UNIT   1021 AT TIME STEP     15, STRESS PERIOD     16
 UBDSV06 SAVING         FROM-MVR IN MODEL E13              PACKAGE UZF-1           CONNECTED TO MODEL E13              PACKAGE UZF-1            ON UNIT   1021 AT TIME STEP     15, STRESS PERIOD     16
 UBDSV06 SAVING   REJ-INF-TO-MVR IN MODEL E13              PACKAGE UZF-1           CONNECTED TO MODEL E13              PACKAGE UZF-1            ON UNIT   1021 AT TIME STEP     15, STRESS PERIOD     16
 UBDSV06 SAVING       MOVER-FLOW IN MODEL E13              PACKAGE UZF-1           CONNECTED TO MODEL E13              PACKAGE UZF-1            ON UNIT   1023 AT TIME STEP     15, STRESS PERIOD     16
 UBDSV06 SAVING       MOVER-FLOW IN MODEL E13              PACKAGE UZF-1           CONNECTED TO MODEL E13              PACKAGE SFR-1            ON UNIT   1023 AT TIME STEP     15, STRESS PERIOD     16
 UBDSV06 SAVING       MOVER-FLOW IN MODEL E13              PACKAGE UZF-1           CONNECTED TO MODEL E13              PACKAGE LAK-1            ON UNIT   1023 AT TIME STEP     15, STRESS PERIOD     16
 UBDSV06 SAVING       MOVER-FLOW IN MODEL E13              PACKAGE UZF-1           CONNECTED TO MODEL E13              PACKAGE WEL-1            ON UNIT   1023 AT TIME STEP     15, STRESS PERIOD     16
 UBDSV06 SAVING       MOVER-FLOW IN MODEL E13              PACKAGE SFR-1           CONNECTED TO MODEL E13              PACKAGE UZF-1            ON UNIT   1023 AT TIME STEP     15, STRESS PERIOD     16
 UBDSV06 SAVING       MOVER-FLOW IN MODEL E13              PACKAGE SFR-1           CONNECTED TO MODEL E13              PACKAGE SFR-1            ON UNIT   1023 AT TIME STEP     15, STRESS PERIOD     16
 UBDSV06 SAVING       MOVER-FLOW IN MODEL E13              PACKAGE SFR-1           CONNECTED TO MODEL E13              PACKAGE LAK-1            ON UNIT   1023 AT TIME STEP     15, STRESS PERIOD     16
 UBDSV06 SAVING       MOVER-FLOW IN MODEL E13              PACKAGE SFR-1           CONNECTED TO MODEL E13              PACKAGE WEL-1            ON UNIT   1023 AT TIME STEP     15, STRESS PERIOD     16
 UBDSV06 SAVING       MOVER-FLOW IN MODEL E13              PACKAGE LAK-1           CONNECTED TO MODEL E13              PACKAGE UZF-1            ON UNIT   1023 AT TIME STEP     15, STRESS PERIOD     16
 UBDSV06 SAVING       MOVER-FLOW IN MODEL E13              PACKAGE LAK-1           CONNECTED TO MODEL E13              PACKAGE SFR-1            ON UNIT   1023 AT TIME STEP     15, STRESS PERIOD     16
 UBDSV06 SAVING       MOVER-FLOW IN MODEL E13              PACKAGE LAK-1           CONNECTED TO MODEL E13              PACKAGE LAK-1            ON UNIT   1023 AT TIME STEP     15, STRESS PERIOD     16
 UBDSV06 SAVING       MOVER-FLOW IN MODEL E13              PACKAGE LAK-1           CONNECTED TO MODEL E13              PACKAGE WEL-1            ON UNIT   1023 AT TIME STEP     15, STRESS PERIOD     16
 UBDSV06 SAVING       MOVER-FLOW IN MODEL E13              PACKAGE WEL-1           CONNECTED TO MODEL E13              PACKAGE UZF-1            ON UNIT   1023 AT TIME STEP     15, STRESS PERIOD     16
 UBDSV06 SAVING       MOVER-FLOW IN MODEL E13              PACKAGE WEL-1           CONNECTED TO MODEL E13              PACKAGE SFR-1            ON UNIT   1023 AT TIME STEP     15, STRESS PERIOD     16
 UBDSV06 SAVING       MOVER-FLOW IN MODEL E13              PACKAGE WEL-1           CONNECTED TO MODEL E13              PACKAGE LAK-1            ON UNIT   1023 AT TIME STEP     15, STRESS PERIOD     16
 UBDSV06 SAVING       MOVER-FLOW IN MODEL E13              PACKAGE WEL-1           CONNECTED TO MODEL E13              PACKAGE WEL-1            ON UNIT   1023 AT TIME STEP     15, STRESS PERIOD     16

 WEL PACKAGE (WEL-1) FLOW RATES   PERIOD     16   STEP       15
 -----------------------------------------------
   NUMBER   CELLID                    RATE      
 -----------------------------------------------
     1      (1,6,4)               0.0000000     
     2      (1,6,5)               0.0000000     
     3      (1,7,4)               0.0000000     
     4      (1,7,5)               0.0000000     
     5      (1,8,4)               0.0000000     
     6      (1,8,5)               0.0000000     
     7      (1,9,4)               0.0000000     
     8      (1,9,5)               0.0000000     
     9      (1,10,4)              0.0000000     
     10     (1,10,5)              0.0000000     
 -----------------------------------------------




 WEL PACKAGE (WEL-1) FLOW RATES TO-MVR   PERIOD     16   STEP       15
 -----------------------------------------------
   NUMBER   CELLID                    RATE      
 -----------------------------------------------
     1      (1,6,4)               0.0000000     
     2      (1,6,5)               0.0000000     
     3      (1,7,4)               0.0000000     
     4      (1,7,5)               0.0000000     
     5      (1,8,4)               0.0000000     
     6      (1,8,5)               0.0000000     
     7      (1,9,4)               0.0000000     
     8      (1,9,5)               0.0000000     
     9      (1,10,4)              0.0000000     
     10     (1,10,5)              0.0000000     
 -----------------------------------------------




 SFR PACKAGE (SFR-1) FLOW RATES   PERIOD     16   STEP       15
 ----------------------------------------------------------------------------------------
   NUMBER   CELLID                    RATE       NAME                                    
 ----------------------------------------------------------------------------------------
     1      (1,1,1)               0.22868377     ALLREACHES                              
     2      (1,2,2)               0.35499870     ALLREACHES                              
     3      (1,3,3)               0.30357347     ALLREACHES                              
     4      (1,3,4)               0.28021936     ALLREACHES                              
     5      (1,4,5)               0.29960805     ALLREACHES                              
     6      (1,5,6)               0.22987955     ALLREACHES                              
     7      (1,6,6)               0.22936563     ALLREACHES                              
     8      (1,7,6)               0.22884928     ALLREACHES                              
     9      (1,8,6)               0.22833044     ALLREACHES                              
     10     (1,3,5)               2.12214188E-02 ALLREACHES                              
     11     (1,3,6)               1.99133007E-02 ALLREACHES                              
     12     (1,3,7)               1.67956407E-02 ALLREACHES                              
     13     (1,4,8)               2.07205450E-02 ALLREACHES                              
     14     (1,5,8)               1.57905563E-02 ALLREACHES                              
     15     (1,6,8)               5.93648362E-03 ALLREACHES                              
     16     (1,5,10)              9.09197693E-02 ALLREACHES                              
     17     (1,5,9)               0.18157734     ALLREACHES                              
     18     (1,6,8)               0.12689514     ALLREACHES                              
     19     (1,6,8)               0.17138468     ALLREACHES                              
     20     (1,7,7)               0.21384773     ALLREACHES                              
     21     (1,8,7)               0.14943953     ALLREACHES                              
     22     (1,8,6)               0.10661428     ALLREACHES                              
     23     (1,9,6)               0.24837387     ALLREACHES                              
     24     (1,12,7)              2.55431580E-02 ALLREACHES                              
     25     (1,13,7)              2.80934148E-02 ALLREACHES                              
     26     (1,14,9)              2.6922030      ALLREACHES                              
     27     (1,13,8)              2.6824902      ALLREACHES                              
     28     (1,13,7)              2.6727412      ALLREACHES                              
     29     (1,13,6)             -2.0038704      ALLREACHES                              
     30     (1,13,2)             -3.3345074      ALLREACHES                              
     31     (1,13,1)             -1.3188457      ALLREACHES                              
 ----------------------------------------------------------------------------------------




 LAK PACKAGE (LAK-1) FLOW RATES   PERIOD     16   STEP       15
 -----------------------------------------------
   NUMBER   CELLID                    RATE      
 -----------------------------------------------
     1      (1,9,7)               8.13943308E-03
     2      (1,10,6)              1.04847172E-02
     3      (2,10,7)              0.94955446    
     4      (1,9,8)               5.64592099E-03
     5      (1,10,9)              1.05609958E-04
     6      (2,10,8)              0.92548097    
     7      (1,11,6)              1.13031119E-02
     8      (1,12,7)              1.05388948E-02
     9      (2,11,7)              0.94905347    
     10     (1,11,9)              2.63003947E-03
     11     (1,12,8)              1.01275669E-02
     12     (2,11,8)              0.92304958    
     13     (1,10,3)             -8.01051244E-04
     14     (1,11,2)             -1.28308311E-03
     15     (2,11,3)             -0.67873400    
     16     (1,10,4)             -1.34948113E-03
     17     (2,11,4)             -0.69953501    
     18     (1,10,5)             -3.28741772E-03
     19     (1,11,6)             -4.43017225E-03
     20     (2,11,5)             -0.72704187    
     21     (1,12,2)             -4.25130829E-03
     22     (2,12,3)             -0.64789443    
     23     (2,12,4)             -0.68219125    
     24     (1,12,6)             -6.05095907E-03
     25     (2,12,5)             -0.71772536    
     26     (1,13,2)             -1.21547232E-03
     27     (2,13,3)             -0.63468426    
     28     (2,13,4)             -0.67680439    
     29     (1,13,6)             -6.36527968E-03
     30     (2,13,5)             -0.71540774    
     31     (1,14,2)             -4.15503489E-03
     32     (1,15,3)              0.0000000     
     33     (2,14,3)             -0.64687599    
     34     (1,15,4)              0.0000000     
     35     (2,14,4)             -0.68114224    
     36     (1,14,6)             -3.80954322E-03
     37     (1,15,5)              0.0000000     
     38     (2,14,5)             -0.71572631    
 -----------------------------------------------




 SFR-1 PACKAGE - SUMMARY OF FLOWS FOR EACH CONTROL VOLUME   PERIOD     16   STEP       15
 --------------------------------------------------------------------------------------------------------------------------------------------------------------------------------------------------------
                                                                                                                                                                                               PERCENT   
   NUMBER   CELLID                  INFLOW      OUTFLOW        GWF        RAINFALL   EVAPORATION     RUNOFF     EXT INFLOW  EXT OUTFLOW    STORAGE      FROM MVR      TO MVR      IN - OUT    DIFFERENCE 
 --------------------------------------------------------------------------------------------------------------------------------------------------------------------------------------------------------
     1      (1,1,1)               0.0000      -24.771      -0.22868      0.0000       0.0000       0.0000       25.000       0.0000       0.0000       0.0000       0.0000       0.0000       0.0000     
     2      (1,2,2)               24.771      -24.416      -0.35500      0.0000       0.0000       0.0000       0.0000       0.0000       0.0000       0.0000       0.0000       0.0000       0.0000     
     3      (1,3,3)               24.416      -24.113      -0.30357      0.0000       0.0000       0.0000       0.0000       0.0000       0.0000       0.0000       0.0000       0.0000       0.0000     
     4      (1,3,4)               24.113      -23.833      -0.28022      0.0000       0.0000       0.0000       0.0000       0.0000       0.0000       0.0000       0.0000       0.0000       0.0000     
     5      (1,4,5)               13.833      -13.533      -0.29961      0.0000       0.0000       0.0000       0.0000       0.0000       0.0000       0.0000       0.0000       0.0000       0.0000     
     6      (1,5,6)               13.533      -13.303      -0.22988      0.0000       0.0000       0.0000       0.0000       0.0000       0.0000       0.0000       0.0000       0.0000       0.0000     
     7      (1,6,6)               13.303      -13.074      -0.22937      0.0000       0.0000       0.0000       0.0000       0.0000       0.0000       0.0000       0.0000       0.0000       0.0000     
     8      (1,7,6)               13.074      -12.845      -0.22885      0.0000       0.0000       0.0000       0.0000       0.0000       0.0000       0.0000       0.0000       0.0000       0.0000     
     9      (1,8,6)               12.845      -12.616      -0.22833      0.0000       0.0000       0.0000       0.0000       0.0000       0.0000       0.0000       0.0000       0.0000       0.0000     
     10     (1,3,5)               10.000      -9.9788      -2.12214E-02  0.0000       0.0000       0.0000       0.0000       0.0000       0.0000       0.0000       0.0000       0.0000       0.0000     
     11     (1,3,6)               9.9788      -9.9589      -1.99133E-02  0.0000       0.0000       0.0000       0.0000       0.0000       0.0000       0.0000       0.0000       0.0000       0.0000     
     12     (1,3,7)               9.9589      -9.9421      -1.67956E-02  0.0000       0.0000       0.0000       0.0000       0.0000       0.0000       0.0000       0.0000       0.0000       0.0000     
     13     (1,4,8)               9.9421      -9.9213      -2.07205E-02  0.0000       0.0000       0.0000       0.0000       0.0000       0.0000       0.0000       0.0000       0.0000       0.0000     
     14     (1,5,8)               9.9213      -9.9056      -1.57906E-02  0.0000       0.0000       0.0000       0.0000       0.0000       0.0000       0.0000       0.0000       0.0000       0.0000     
     15     (1,6,8)               9.9056      -9.8996      -5.93648E-03  0.0000       0.0000       0.0000       0.0000       0.0000       0.0000       0.0000       0.0000       0.0000       0.0000     
     16     (1,5,10)              0.0000      -9.9091      -9.09198E-02  0.0000       0.0000       0.0000       10.000       0.0000       0.0000       0.0000       0.0000       0.0000       0.0000     
     17     (1,5,9)               9.9091      -9.7275      -0.18158      0.0000       0.0000       0.0000       0.0000       0.0000       0.0000       0.0000       0.0000       0.0000       0.0000     
     18     (1,6,8)               9.7275      -9.6006      -0.12690      0.0000       0.0000       0.0000       0.0000       0.0000       0.0000       0.0000       0.0000       0.0000       0.0000     
     19     (1,6,8)               19.500      -19.329      -0.17138      0.0000       0.0000       0.0000       0.0000       0.0000       0.0000       0.0000       0.0000       0.0000       0.0000     
     20     (1,7,7)               19.329      -19.115      -0.21385      0.0000       0.0000       0.0000       0.0000       0.0000       0.0000       0.0000       0.0000       0.0000       0.0000     
     21     (1,8,7)               19.115      -18.966      -0.14944      0.0000       0.0000       0.0000       0.0000       0.0000       0.0000       0.0000       0.0000       0.0000       0.0000     
     22     (1,8,6)               18.966      -18.859      -0.10661      0.0000       0.0000       0.0000       0.0000       0.0000       0.0000       0.0000       0.0000       0.0000       0.0000     
     23     (1,9,6)               31.475       0.0000      -0.24837      0.0000       0.0000       0.0000       0.0000       0.0000       0.0000       0.0000      -31.227       0.0000       0.0000     
     24     (1,12,7)              0.0000      -32.886      -2.55432E-02  0.0000       0.0000       0.0000       0.0000       0.0000       0.0000       32.911       0.0000       0.0000       0.0000     
     25     (1,13,7)              32.886      -32.858      -2.80934E-02  0.0000       0.0000       0.0000       0.0000       0.0000       0.0000       0.0000       0.0000       0.0000       0.0000     
     26     (1,14,9)              0.0000      -147.31      -2.6922       0.0000       0.0000       0.0000       150.00       0.0000       0.0000       0.0000       0.0000       0.0000       0.0000     
     27     (1,13,8)              147.31      -144.63      -2.6825       0.0000       0.0000       0.0000       0.0000       0.0000       0.0000       0.0000       0.0000       0.0000       0.0000     
     28     (1,13,7)              144.63      -141.95      -2.6727       0.0000       0.0000       0.0000       0.0000       0.0000       0.0000       0.0000       0.0000       0.0000       0.0000     
     29     (1,13,6)              174.81       0.0000       2.0039       0.0000       0.0000       0.0000       0.0000      -2.29408E-08  0.0000       0.0000      -176.81       0.0000       0.0000     
     30     (1,13,2)              0.0000      -191.64       3.3345       0.0000       0.0000       0.0000       0.0000       0.0000       0.0000       188.31       0.0000       0.0000       0.0000     
     31     (1,13,1)              191.64       0.0000       1.3188       0.0000       0.0000       0.0000       0.0000      -199.80       0.0000       6.8392       0.0000       0.0000       0.0000     
 --------------------------------------------------------------------------------------------------------------------------------------------------------------------------------------------------------



 LAK-1 PACKAGE - SUMMARY OF FLOWS FOR EACH CONTROL VOLUME   PERIOD     16   STEP       15
 -----------------------------------------------------------------------------------------------------------------------------------------------------------------------------------
                                                                                                                                                                          PERCENT   
   NUMBER       GWF        RAINFALL   EVAPORATION     RUNOFF     EXT INFLOW   WITHDRAWAL  EXT OUTFLOW    STORAGE      CONSTANT     FROM MVR      TO MVR      IN - OUT    DIFFERENCE 
 -----------------------------------------------------------------------------------------------------------------------------------------------------------------------------------
     1      -3.8061       5.0000      -1.0000       1.5000       0.0000       0.0000       0.0000      -9.46091E-03  0.0000       31.227      -32.911       1.49989E-07  3.97564E-07
     2       8.2608       3.6000      -3.3000       3.0000       0.0000      -0.12000     -3.70299E-08  5.10003E-03  0.0000       176.81      -188.26       6.87806E-07  3.58830E-07
 -----------------------------------------------------------------------------------------------------------------------------------------------------------------------------------



 WATER MOVER PACKAGE (MVR) FLOW RATES   PERIOD     16   STEP       15
 --------------------------------------------------------------------------------------------------------------------------
                                               PROVIDER  AVAILABLE   PROVIDED                                     RECEIVER 
   NUMBER           PROVIDER LOCATION             ID        RATE       RATE            RECEIVER LOCATION             ID    
 --------------------------------------------------------------------------------------------------------------------------
     1                  E13/SFR-1                 23      31.2       31.2                  E13/LAK-1                 1     
     2                  E13/LAK-1                 1       32.9       32.9                  E13/SFR-1                 24    
     3                  E13/SFR-1                 29      177.       177.                  E13/LAK-1                 2     
     4                  E13/LAK-1                 2       188.       188.                  E13/SFR-1                 30    
     5                  E13/UZF-1                 1       0.00       0.00                  E13/SFR-1                 1     
     6                  E13/UZF-1                 2       0.00       0.00                  E13/SFR-1                 2     
     7                  E13/UZF-1                 3       0.00       0.00                  E13/SFR-1                 2     
     8                  E13/UZF-1                 4       0.00       0.00                  E13/SFR-1                 2     
     9                  E13/UZF-1                 5       0.00       0.00                  E13/SFR-1                 3     
     10                 E13/UZF-1                 6       0.00       0.00                  E13/SFR-1                 11    
     11                 E13/UZF-1                 7       0.00       0.00                  E13/SFR-1                 12    
     12                 E13/UZF-1                 8       0.00       0.00                  E13/SFR-1                 12    
     13                 E13/UZF-1                 9       0.00       0.00                  E13/SFR-1                 2     
     14                 E13/UZF-1                 10      0.00       0.00                  E13/SFR-1                 3     
     15                 E13/UZF-1                 11      0.00       0.00                  E13/SFR-1                 4     
     16                 E13/UZF-1                 12      0.00       0.00                  E13/SFR-1                 10    
     17                 E13/UZF-1                 13      0.00       0.00                  E13/SFR-1                 11    
     18                 E13/UZF-1                 14      0.00       0.00                  E13/SFR-1                 12    
     19                 E13/UZF-1                 15      0.00       0.00                  E13/SFR-1                 13    
     20                 E13/UZF-1                 16      0.00       0.00                  E13/LAK-1                 2     
     21                 E13/UZF-1                 17      0.00       0.00                  E13/LAK-1                 2     
     22                 E13/UZF-1                 18      0.00       0.00                  E13/SFR-1                 3     
     23                 E13/UZF-1                 19      0.00       0.00                  E13/SFR-1                 4     
     24                 E13/UZF-1                 20      0.00       0.00                  E13/SFR-1                 5     
     25                 E13/UZF-1                 21      0.00       0.00                  E13/SFR-1                 6     
     26                 E13/UZF-1                 22      0.00       0.00                  E13/SFR-1                 6     
     27                 E13/UZF-1                 23      0.00       0.00                  E13/SFR-1                 13    
     28                 E13/UZF-1                 24      0.00       0.00                  E13/SFR-1                 17    
     29                 E13/UZF-1                 25      0.00       0.00                  E13/LAK-1                 2     
     30                 E13/UZF-1                 26      0.00       0.00                  E13/LAK-1                 2     
     31                 E13/UZF-1                 27      0.00       0.00                  E13/LAK-1                 2     
     32                 E13/UZF-1                 28      0.00       0.00                  E13/LAK-1                 2     
     33                 E13/UZF-1                 29      0.00       0.00                  E13/SFR-1                 5     
     34                 E13/UZF-1                 30      0.00       0.00                  E13/SFR-1                 6     
     35                 E13/UZF-1                 31      0.00       0.00                  E13/SFR-1                 6     
     36                 E13/UZF-1                 32      0.00       0.00                  E13/SFR-1                 14    
     37                 E13/UZF-1                 33      0.00       0.00                  E13/SFR-1                 17    
     38                 E13/UZF-1                 34      0.00       0.00                  E13/SFR-1                 16    
     39                 E13/UZF-1                 35      0.00       0.00                  E13/LAK-1                 2     
     40                 E13/UZF-1                 36      0.00       0.00                  E13/LAK-1                 2     
     41                 E13/UZF-1                 37      0.00       0.00                  E13/LAK-1                 2     
     42                 E13/UZF-1                 38      0.00       0.00                  E13/LAK-1                 2     
     43                 E13/UZF-1                 39      0.00       0.00                  E13/LAK-1                 2     
     44                 E13/UZF-1                 40      0.00       0.00                  E13/SFR-1                 7     
     45                 E13/UZF-1                 41      0.00       0.00                  E13/SFR-1                 7     
     46                 E13/UZF-1                 42      0.00       0.00                  E13/SFR-1                 19    
     47                 E13/UZF-1                 43      0.00       0.00                  E13/SFR-1                 17    
     48                 E13/UZF-1                 44      0.00       0.00                  E13/SFR-1                 16    
     49                 E13/UZF-1                 45      0.00       0.00                  E13/LAK-1                 2     
     50                 E13/UZF-1                 46      0.00       0.00                  E13/LAK-1                 2     
     51                 E13/UZF-1                 47      0.00       0.00                  E13/LAK-1                 2     
     52                 E13/UZF-1                 48      0.00       0.00                  E13/LAK-1                 2     
     53                 E13/UZF-1                 49      0.00       0.00                  E13/LAK-1                 2     
     54                 E13/UZF-1                 50      0.00       0.00                  E13/SFR-1                 8     
     55                 E13/UZF-1                 51      0.00       0.00                  E13/SFR-1                 20    
     56                 E13/UZF-1                 52      0.00       0.00                  E13/SFR-1                 20    
     57                 E13/UZF-1                 53      0.00       0.00                  E13/SFR-1                 20    
     58                 E13/UZF-1                 54      0.00       0.00                  E13/LAK-1                 2     
     59                 E13/UZF-1                 55      0.00       0.00                  E13/LAK-1                 2     
     60                 E13/UZF-1                 56      0.00       0.00                  E13/LAK-1                 2     
     61                 E13/UZF-1                 57      0.00       0.00                  E13/LAK-1                 2     
     62                 E13/UZF-1                 58      0.00       0.00                  E13/SFR-1                 9     
     63                 E13/UZF-1                 59      0.00       0.00                  E13/SFR-1                 21    
     64                 E13/UZF-1                 60      0.00       0.00                  E13/SFR-1                 21    
     65                 E13/UZF-1                 61      0.00       0.00                  E13/SFR-1                 21    
     66                 E13/UZF-1                 62      0.00       0.00                  E13/LAK-1                 2     
     67                 E13/UZF-1                 63      0.00       0.00                  E13/LAK-1                 2     
     68                 E13/UZF-1                 64      0.00       0.00                  E13/LAK-1                 2     
     69                 E13/UZF-1                 65      0.00       0.00                  E13/LAK-1                 2     
     70                 E13/UZF-1                 66      0.00       0.00                  E13/SFR-1                 23    
     71                 E13/UZF-1                 67      0.00       0.00                  E13/LAK-1                 1     
     72                 E13/UZF-1                 68      0.00       0.00                  E13/LAK-1                 1     
     73                 E13/UZF-1                 69      0.00       0.00                  E13/LAK-1                 1     
     74                 E13/UZF-1                 70      0.00       0.00                  E13/LAK-1                 2     
     75                 E13/UZF-1                 71      0.00       0.00                  E13/LAK-1                 2     
     76                 E13/UZF-1                 72      0.00       0.00                  E13/LAK-1                 2     
     77                 E13/UZF-1                 73      0.00       0.00                  E13/LAK-1                 2     
     78                 E13/UZF-1                 74      0.00       0.00                  E13/LAK-1                 1     
     79                 E13/UZF-1                 75      0.00       0.00                  E13/LAK-1                 1     
     80                 E13/UZF-1                 76      0.00       0.00                  E13/LAK-1                 1     
     81                 E13/UZF-1                 77      0.00       0.00                  E13/LAK-1                 2     
     82                 E13/UZF-1                 78      0.00       0.00                  E13/SFR-1                 9     
     83                 E13/UZF-1                 79      0.00       0.00                  E13/LAK-1                 1     
     84                 E13/UZF-1                 80      0.00       0.00                  E13/SFR-1                 31    
     85                 E13/UZF-1                 81      0.00       0.00                  E13/SFR-1                 30    
     86                 E13/UZF-1                 82      0.00       0.00                  E13/SFR-1                 9     
     87                 E13/UZF-1                 83      0.00       0.00                  E13/SFR-1                 24    
     88                 E13/UZF-1                 84      0.00       0.00                  E13/LAK-1                 1     
     89                 E13/UZF-1                 85      0.00       0.00                  E13/LAK-1                 1     
     90                 E13/UZF-1                 86      6.84       6.84                  E13/SFR-1                 31    
     91                 E13/UZF-1                 87      4.599E-02  4.599E-02             E13/SFR-1                 30    
     92                 E13/UZF-1                 88      0.00       0.00                  E13/SFR-1                 29    
     93                 E13/UZF-1                 89      0.00       0.00                  E13/SFR-1                 28    
     94                 E13/UZF-1                 90      0.00       0.00                  E13/SFR-1                 27    
     95                 E13/UZF-1                 91      0.00       0.00                  E13/SFR-1                 26    
     96                 E13/UZF-1                 92      0.00       0.00                  E13/SFR-1                 30    
     97                 E13/UZF-1                 93      0.00       0.00                  E13/LAK-1                 2     
     98                 E13/UZF-1                 94      0.00       0.00                  E13/SFR-1                 28    
     99                 E13/UZF-1                 95      0.00       0.00                  E13/SFR-1                 27    
    100                 E13/UZF-1                 96      0.00       0.00                  E13/SFR-1                 26    
    101                 E13/UZF-1                 97      0.00       0.00                  E13/LAK-1                 2     
    102                 E13/UZF-1                 98      0.00       0.00                  E13/LAK-1                 2     
    103                 E13/UZF-1                 99      0.00       0.00                  E13/LAK-1                 2     
    104                 E13/UZF-1                100      0.00       0.00                  E13/LAK-1                 2     
    105                 E13/WEL-1                 1       0.00       0.00                  E13/UZF-1                 38    
    106                 E13/WEL-1                 2       0.00       0.00                  E13/UZF-1                 39    
    107                 E13/WEL-1                 3       0.00       0.00                  E13/UZF-1                 48    
    108                 E13/WEL-1                 4       0.00       0.00                  E13/UZF-1                 49    
    109                 E13/WEL-1                 5       0.00       0.00                  E13/UZF-1                 56    
    110                 E13/WEL-1                 6       0.00       0.00                  E13/UZF-1                 57    
    111                 E13/WEL-1                 7       0.00       0.00                  E13/UZF-1                 64    
    112                 E13/WEL-1                 8       0.00       0.00                  E13/UZF-1                 65    
    113                 E13/WEL-1                 9       0.00       0.00                  E13/UZF-1                 72    
    114                 E13/WEL-1                 10      0.00       0.00                  E13/UZF-1                 73    
 --------------------------------------------------------------------------------------------------------------------------



 SFR PACKAGE (SFR-1) STAGES FOR EACH CONTROL VOLUME   PERIOD     16   STEP       15
 ------------------------------------------------------------------------------------------------------------------------------------------------------
                                                                                                                               STREAMBED    STREAMBED  
 NAME                                       NUMBER   CELLID                  STAGE        DEPTH        WIDTH       GWF HEAD   CONDUCTANCE    GRADIENT  
 ------------------------------------------------------------------------------------------------------------------------------------------------------
 ALLREACHES                                   1      (1,1,1)               1094.3       1.2349       12.000       1020.0       5.40000E-02  1.4116     
 ALLREACHES                                   2      (1,2,2)               1089.3       1.2262       12.000       1020.6       8.40000E-02  1.4087     
 ALLREACHES                                   3      (1,3,3)               1083.6       1.2163       12.000       1020.6       7.20000E-02  1.4054     
 ALLREACHES                                   4      (1,3,4)               1078.6       1.2075       12.000       1020.6       6.66000E-02  1.4025     
 ALLREACHES                                   5      (1,4,5)               1072.8       0.84113      12.000       1020.6       7.80000E-02  1.2804     
 ALLREACHES                                   6      (1,5,6)               1067.3       0.83133      12.000       1020.2       6.00000E-02  1.2771     
 ALLREACHES                                   7      (1,6,6)               1062.6       0.82276      12.000       1019.4       6.00000E-02  1.2743     
 ALLREACHES                                   8      (1,7,6)               1057.9       0.81415      12.000       1019.1       6.00000E-02  1.2714     
 ALLREACHES                                   9      (1,8,6)               1053.2       0.80551      12.000       1019.1       6.00000E-02  1.2685     
 ALLREACHES                                   10     (1,3,5)               1074.6       0.93630      9.6364       1019.9       7.22727E-03  1.4681     
 ALLREACHES                                   11     (1,3,6)               1071.9       0.98022      8.9091       1020.1       6.68182E-03  1.4901     
 ALLREACHES                                   12     (1,3,7)               1069.3       1.0277       8.2182       1020.1       5.54727E-03  1.5139     
 ALLREACHES                                   13     (1,4,8)               1066.5       1.0884       7.4545       1019.8       6.70909E-03  1.5442     
 ALLREACHES                                   14     (1,5,8)               1063.6       1.1639       6.6545       1019.0       4.99091E-03  1.5819     
 ALLREACHES                                   15     (1,6,8)               1061.8       1.2200       6.1455       1019.6       1.84364E-03  1.6100     
 ALLREACHES                                   16     (1,5,10)              1078.4       0.63679      10.000       1019.9       2.50000E-02  1.2123     
 ALLREACHES                                   17     (1,5,9)               1071.5       0.63155      10.000       1020.2       5.00000E-02  1.2105     
 ALLREACHES                                   18     (1,6,8)               1063.8       0.62558      10.000       1019.6       3.50000E-02  1.2085     
 ALLREACHES                                   19     (1,6,8)               1060.0       1.2846       10.000       1019.6       4.00000E-02  1.4282     
 ALLREACHES                                   20     (1,7,7)               1056.9       1.2770       10.000       1019.3       5.00000E-02  1.4257     
 ALLREACHES                                   21     (1,8,7)               1054.1       1.2697       10.000       1019.1       3.50000E-02  1.4232     
 ALLREACHES                                   22     (1,8,6)               1052.1       1.2646       10.000       1019.1       2.50000E-02  1.4215     
 ALLREACHES                                   23     (1,9,6)               1046.6       1.1396       12.000       1018.6       6.00000E-02  1.3799     
 ALLREACHES                                   24     (1,12,7)              1037.7       1.2572       12.000       1020.2       6.00000E-03  1.4191     
 ALLREACHES                                   25     (1,13,7)              1030.2       1.2566       12.000       1023.0       6.60000E-03  1.4189     
 ALLREACHES                                   26     (1,14,9)              1034.8       1.4870       60.000       1027.6       0.60000      1.4957     
 ALLREACHES                                   27     (1,13,8)              1031.5       1.4708       60.000       1024.9       0.60000      1.4903     
 ALLREACHES                                   28     (1,13,7)              1028.1       1.4546       60.000       1023.0       0.60000      1.4849     
 ALLREACHES                                   29     (1,13,6)              1013.9       0.90958      60.000       1017.2       0.60000     -1.1133     
 ALLREACHES                                   30     (1,13,2)              998.30       1.4267       60.000       1003.9       0.60000     -1.8525     
 ALLREACHES                                   31     (1,13,1)              993.34       1.4676       60.000       997.01       0.36000     -1.2212     
 ------------------------------------------------------------------------------------------------------------------------------------------------------



 LAK PACKAGE (LAK-1) STAGES FOR EACH CONTROL VOLUME   PERIOD     16   STEP       15
 --------------------------------------------------------------
   NUMBER      STAGE     SURFACE AREA WETTED AREA     VOLUME   
 --------------------------------------------------------------
     1       1041.3       1.00000E+08  1.01383E+08  4.27579E+09
     2       1001.4       3.00000E+08  3.01472E+08  5.30069E+09
 --------------------------------------------------------------



 HEAD WILL BE SAVED ON UNIT 1026 AT END OF TIME STEP   15, STRESS PERIOD   16


  SFR-1 BUDGET FOR ENTIRE MODEL AT END OF TIME STEP   15, STRESS PERIOD  16
  ------------------------------------------------------------------------------

     CUMULATIVE SFR-1      L**3       RATES FOR THIS TIME STEP      L**3/T
     ------------------                 ------------------------

           IN:                                      IN:
           ---                                      ---
                 GWF =   256975165.8163                   GWF =           6.6572
            RAINFALL =           0.0000              RAINFALL =           0.0000
         EVAPORATION =           0.0000           EVAPORATION =           0.0000
              RUNOFF =           0.0000                RUNOFF =           0.0000
          EXT-INFLOW =  7778880000.0000            EXT-INFLOW =         185.0000
         EXT-OUTFLOW =       1.7046E-02           EXT-OUTFLOW =           0.0000
             STORAGE =           0.0000               STORAGE =           0.0000
            FROM-MVR =  9509801016.1702              FROM-MVR =         228.0568
              TO-MVR =           0.0000                TO-MVR =           0.0000

            TOTAL IN = 17545656182.0035              TOTAL IN =         419.7140

          OUT:                                     OUT:
          ----                                     ----
                 GWF =   499275885.7420                   GWF =          11.8740
            RAINFALL =           0.0000              RAINFALL =           0.0000
         EVAPORATION =           0.0000           EVAPORATION =           0.0000
              RUNOFF =           0.0000                RUNOFF =           0.0000
          EXT-INFLOW =           0.0000            EXT-INFLOW =           0.0000
         EXT-OUTFLOW =  8318947284.0608           EXT-OUTFLOW =         199.7987
             STORAGE =           0.0000               STORAGE =           0.0000
            FROM-MVR =           0.0000              FROM-MVR =           0.0000
              TO-MVR =  8727433012.2007                TO-MVR =         208.0413

           TOTAL OUT = 17545656182.0035             TOTAL OUT =         419.7140

            IN - OUT =       7.6294E-06              IN - OUT =           0.0000

 PERCENT DISCREPANCY =           0.00     PERCENT DISCREPANCY =           0.00



  LAK-1 BUDGET FOR ENTIRE MODEL AT END OF TIME STEP   15, STRESS PERIOD  16
  ------------------------------------------------------------------------------

     CUMULATIVE LAK-1      L**3       RATES FOR THIS TIME STEP      L**3/T
     ------------------                 ------------------------

           IN:                                      IN:
           ---                                      ---
                 GWF =   327081637.7469                   GWF =           8.2608
            RAINFALL =   361612800.0000              RAINFALL =           8.6000
         EVAPORATION =           0.0000           EVAPORATION =           0.0000
              RUNOFF =   189216000.0000                RUNOFF =           4.5000
          EXT-INFLOW =           0.0000            EXT-INFLOW =           0.0000
          WITHDRAWAL =           0.0000            WITHDRAWAL =           0.0000
         EXT-OUTFLOW =           1.4865           EXT-OUTFLOW =           0.0000
             STORAGE =      332470.2897               STORAGE =       5.1000E-03
            CONSTANT =           0.0000              CONSTANT =           0.0000
            FROM-MVR =  8727433012.2007              FROM-MVR =         208.0413
              TO-MVR =           0.0000                TO-MVR =           0.0000

            TOTAL IN =  9605675921.7238              TOTAL IN =         229.4072

          OUT:                                     OUT:
          ----                                     ----
                 GWF =   168320765.2299                   GWF =           3.8061
            RAINFALL =           0.0000              RAINFALL =           0.0000
         EVAPORATION =   180806400.0000           EVAPORATION =           4.3000
              RUNOFF =           0.0000                RUNOFF =           0.0000
          EXT-INFLOW =           0.0000            EXT-INFLOW =           0.0000
          WITHDRAWAL =     5045760.0000            WITHDRAWAL =           0.1200
         EXT-OUTFLOW =           2.2150           EXT-OUTFLOW =       3.7030E-08
             STORAGE =     3521029.1360               STORAGE =       9.4609E-03
            CONSTANT =           0.0000              CONSTANT =           0.0000
            FROM-MVR =           0.0000              FROM-MVR =           0.0000
              TO-MVR =  9247981970.2283                TO-MVR =         221.1716

           TOTAL OUT =  9605675926.8092             TOTAL OUT =         229.4072

            IN - OUT =          -5.0854              IN - OUT =       8.3780E-07

 PERCENT DISCREPANCY =          -0.00     PERCENT DISCREPANCY =           0.00



  UZF-1 BUDGET FOR ENTIRE MODEL AT END OF TIME STEP   15, STRESS PERIOD  16
  ------------------------------------------------------------------------------

     CUMULATIVE UZF-1      L**3       RATES FOR THIS TIME STEP      L**3/T
     ------------------                 ------------------------

           IN:                                      IN:
           ---                                      ---
                 GWF =           0.0000                   GWF =           0.0000
        INFILTRATION =  4436367271.2000          INFILTRATION =         153.0000
             REJ-INF =           0.0000               REJ-INF =           0.0000
                UZET =           0.0000                  UZET =           0.0000
             STORAGE =  1590110320.8118               STORAGE =           8.4116
            FROM-MVR =   201042000.0000              FROM-MVR =           0.0000
      REJ-INF-TO-MVR =           0.0000        REJ-INF-TO-MVR =           0.0000

            TOTAL IN =  6227519592.0118              TOTAL IN =         161.4116

          OUT:                                     OUT:
          ----                                     ----
                 GWF =  1009851394.4944                   GWF =          29.4646
        INFILTRATION =           0.0000          INFILTRATION =           0.0000
             REJ-INF =          28.2994               REJ-INF =       2.9248E-06
                UZET =   876783913.6460                  UZET =          21.8321
             STORAGE =  4325827692.2250               STORAGE =         109.5689
            FROM-MVR =           0.0000              FROM-MVR =           0.0000
      REJ-INF-TO-MVR =    15056497.4964        REJ-INF-TO-MVR =           0.5460

           TOTAL OUT =  6227519526.1613             TOTAL OUT =         161.4116

            IN - OUT =          65.8505              IN - OUT =       1.6590E-06

 PERCENT DISCREPANCY =           0.00     PERCENT DISCREPANCY =           0.00



  WATER MOVER BUDGET FOR ENTIRE MODEL AT END OF TIME STEP   15, STRESS PERIOD  16
  ------------------------------------------------------------------------------

     CUMULATIVE WATER MOVER      L**3       RATES FOR THIS TIME STEP      L**3/T
     ------------------                 ------------------------

           IN:                                      IN:
           ---                                      ---
               UZF-1 =   261819045.9419                 UZF-1 =           6.8852
               SFR-1 =  8727433012.2007                 SFR-1 =         208.0413
               LAK-1 =  9247981970.2283                 LAK-1 =         221.1716
               WEL-1 =   201042000.0000                 WEL-1 =           0.0000

            TOTAL IN = 18438276028.3709              TOTAL IN =         436.0982

          OUT:                                     OUT:
          ----                                     ----
               UZF-1 =   201042000.0000                 UZF-1 =           0.0000
               SFR-1 =  9509801016.1702                 SFR-1 =         228.0568
               LAK-1 =  8727433012.2007                 LAK-1 =         208.0413
               WEL-1 =           0.0000                 WEL-1 =           0.0000

           TOTAL OUT = 18438276028.3709             TOTAL OUT =         436.0982

            IN - OUT =      -7.6294E-06              IN - OUT =           0.0000

 PERCENT DISCREPANCY =          -0.00     PERCENT DISCREPANCY =           0.00



  VOLUME BUDGET FOR ENTIRE MODEL AT END OF TIME STEP   15, STRESS PERIOD  16
  ---------------------------------------------------------------------------------------------------

     CUMULATIVE VOLUME      L**3       RATES FOR THIS TIME STEP      L**3/T          PACKAGE NAME    
     ------------------                 ------------------------                     ----------------

           IN:                                      IN:
           ---                                      ---
              STO-SS =      870593.7007                STO-SS =       7.8768E-03     STORAGE                          
              STO-SY =   266625639.8875                STO-SY =           1.6777     STORAGE                          
                 WEL =           0.0000                   WEL =           0.0000     WEL-1                            
          WEL-TO-MVR =           0.0000            WEL-TO-MVR =           0.0000     WEL-1                            
                 GHB =    29313569.4799                   GHB =           0.6623     GHB_0                            
                 SFR =   499275885.7420                   SFR =          11.8740     SFR-1                            
                 LAK =   168320765.2299                   LAK =           3.8061     LAK-1                            
           UZF-GWRCH =  1009851394.4944             UZF-GWRCH =          29.4646     UZF-1                            
             UZF-GWD =           0.0000               UZF-GWD =           0.0000     UZF-1                            
      UZF-GWD TO-MVR =           0.0000        UZF-GWD TO-MVR =           0.0000     UZF-1                            
            UZF-GWET =           0.0000              UZF-GWET =           0.0000     UZF-1                            

            TOTAL IN =  1974257848.5344              TOTAL IN =          47.4926

          OUT:                                     OUT:
          ----                                     ----
              STO-SS =     4181611.4526                STO-SS =       7.4044E-02     STORAGE                          
              STO-SY =   899958049.9138                STO-SY =          25.2174     STORAGE                          
                 WEL =           0.0000                   WEL =           0.0000     WEL-1                            
          WEL-TO-MVR =   201042000.0000            WEL-TO-MVR =           0.0000     WEL-1                            
                 GHB =    14387455.0092                   GHB =           0.3422     GHB_0                            
                 SFR =   256975479.5616                   SFR =           6.6572     SFR-1                            
                 LAK =   327081637.7469                   LAK =           8.2608     LAK-1                            
           UZF-GWRCH =           0.0000             UZF-GWRCH =           0.0000     UZF-1                            
             UZF-GWD =         114.6488               UZF-GWD =       2.5530E-07     UZF-1                            
      UZF-GWD TO-MVR =   246762548.4455        UZF-GWD TO-MVR =           6.3392     UZF-1                            
            UZF-GWET =    23858101.1248              UZF-GWET =           0.6005     UZF-1                            

           TOTAL OUT =  1974246997.9032             TOTAL OUT =          47.4914

            IN - OUT =       10850.6312              IN - OUT =       1.2614E-03

 PERCENT DISCREPANCY =           0.00     PERCENT DISCREPANCY =           0.00




         TIME SUMMARY AT END OF TIME STEP   15 IN STRESS PERIOD   16
                    SECONDS     MINUTES      HOURS       DAYS        YEARS
                    -----------------------------------------------------------
   TIME STEP LENGTH 1.75200E+05  2920.0      48.667      2.0278     5.55175E-03
 STRESS PERIOD TIME 2.62800E+06  43800.      730.00      30.417     8.32763E-02
         TOTAL TIME 4.20480E+07 7.00800E+05  11680.      486.67      1.3324    


end timestep


start timestep kper="17" kstp="1" mode="normal"


 OUTPUT CONTROL FOR STRESS PERIOD 17 IS REPEATED USING SETTINGS FROM A PREVIOUS STRESS PERIOD.


 STRESS PERIOD 17 IS TRANSIENT


 REUSING MVRS FROM LAST STRESS PERIOD

 REUSING SFRS FROM LAST STRESS PERIOD

 REUSING LAKS FROM LAST STRESS PERIOD

end timestep


start timestep kper="17" kstp="2" mode="normal"


end timestep


start timestep kper="17" kstp="3" mode="normal"


end timestep


start timestep kper="17" kstp="4" mode="normal"


end timestep


start timestep kper="17" kstp="5" mode="normal"


end timestep


start timestep kper="17" kstp="6" mode="normal"


end timestep


start timestep kper="17" kstp="7" mode="normal"


end timestep


start timestep kper="17" kstp="8" mode="normal"


end timestep


start timestep kper="17" kstp="9" mode="normal"


end timestep


start timestep kper="17" kstp="10" mode="normal"


end timestep


start timestep kper="17" kstp="11" mode="normal"


end timestep


start timestep kper="17" kstp="12" mode="normal"


end timestep


start timestep kper="17" kstp="13" mode="normal"


end timestep


start timestep kper="17" kstp="14" mode="normal"


end timestep


start timestep kper="17" kstp="15" mode="normal"

 UBDSV1 SAVING           STO-SS ON UNIT   1025 AT TIME STEP     15, STRESS PERIOD     17
 UBDSV1 SAVING           STO-SY ON UNIT   1025 AT TIME STEP     15, STRESS PERIOD     17
 UBDSV1 SAVING     FLOW-JA-FACE ON UNIT   1025 AT TIME STEP     15, STRESS PERIOD     17
 UBDSV06 SAVING       DATA-SPDIS IN MODEL E13              PACKAGE NPF             CONNECTED TO MODEL E13              PACKAGE NPF              ON UNIT   1025 AT TIME STEP     15, STRESS PERIOD     17
 UBDSV06 SAVING              WEL IN MODEL E13              PACKAGE E13             CONNECTED TO MODEL E13              PACKAGE WEL-1            ON UNIT   1025 AT TIME STEP     15, STRESS PERIOD     17
 UBDSV06 SAVING       WEL-TO-MVR IN MODEL E13              PACKAGE E13             CONNECTED TO MODEL E13              PACKAGE WEL-1            ON UNIT   1025 AT TIME STEP     15, STRESS PERIOD     17
 UBDSV06 SAVING              GHB IN MODEL E13              PACKAGE E13             CONNECTED TO MODEL E13              PACKAGE GHB_0            ON UNIT   1025 AT TIME STEP     15, STRESS PERIOD     17
 UBDSV06 SAVING              SFR IN MODEL E13              PACKAGE E13             CONNECTED TO MODEL E13              PACKAGE SFR-1            ON UNIT   1025 AT TIME STEP     15, STRESS PERIOD     17
 UBDSV06 SAVING              LAK IN MODEL E13              PACKAGE E13             CONNECTED TO MODEL E13              PACKAGE LAK-1            ON UNIT   1025 AT TIME STEP     15, STRESS PERIOD     17
 UBDSV06 SAVING        UZF-GWRCH IN MODEL E13              PACKAGE E13             CONNECTED TO MODEL E13              PACKAGE UZF-1            ON UNIT   1025 AT TIME STEP     15, STRESS PERIOD     17
 UBDSV06 SAVING          UZF-GWD IN MODEL E13              PACKAGE E13             CONNECTED TO MODEL E13              PACKAGE UZF-1            ON UNIT   1025 AT TIME STEP     15, STRESS PERIOD     17
 UBDSV06 SAVING   UZF-GWD TO-MVR IN MODEL E13              PACKAGE E13             CONNECTED TO MODEL E13              PACKAGE UZF-1            ON UNIT   1025 AT TIME STEP     15, STRESS PERIOD     17
 UBDSV06 SAVING         UZF-GWET IN MODEL E13              PACKAGE E13             CONNECTED TO MODEL E13              PACKAGE UZF-1            ON UNIT   1025 AT TIME STEP     15, STRESS PERIOD     17
 UBDSV06 SAVING     FLOW-JA-FACE IN MODEL E13              PACKAGE SFR-1           CONNECTED TO MODEL E13              PACKAGE SFR-1            ON UNIT   1017 AT TIME STEP     15, STRESS PERIOD     17
 UBDSV06 SAVING              GWF IN MODEL E13              PACKAGE SFR-1           CONNECTED TO MODEL E13              PACKAGE E13              ON UNIT   1017 AT TIME STEP     15, STRESS PERIOD     17
 UBDSV06 SAVING         RAINFALL IN MODEL E13              PACKAGE SFR-1           CONNECTED TO MODEL E13              PACKAGE SFR-1            ON UNIT   1017 AT TIME STEP     15, STRESS PERIOD     17
 UBDSV06 SAVING      EVAPORATION IN MODEL E13              PACKAGE SFR-1           CONNECTED TO MODEL E13              PACKAGE SFR-1            ON UNIT   1017 AT TIME STEP     15, STRESS PERIOD     17
 UBDSV06 SAVING           RUNOFF IN MODEL E13              PACKAGE SFR-1           CONNECTED TO MODEL E13              PACKAGE SFR-1            ON UNIT   1017 AT TIME STEP     15, STRESS PERIOD     17
 UBDSV06 SAVING       EXT-INFLOW IN MODEL E13              PACKAGE SFR-1           CONNECTED TO MODEL E13              PACKAGE SFR-1            ON UNIT   1017 AT TIME STEP     15, STRESS PERIOD     17
 UBDSV06 SAVING      EXT-OUTFLOW IN MODEL E13              PACKAGE SFR-1           CONNECTED TO MODEL E13              PACKAGE SFR-1            ON UNIT   1017 AT TIME STEP     15, STRESS PERIOD     17
 UBDSV06 SAVING          STORAGE IN MODEL E13              PACKAGE SFR-1           CONNECTED TO MODEL E13              PACKAGE SFR-1            ON UNIT   1017 AT TIME STEP     15, STRESS PERIOD     17
 UBDSV06 SAVING         FROM-MVR IN MODEL E13              PACKAGE SFR-1           CONNECTED TO MODEL E13              PACKAGE SFR-1            ON UNIT   1017 AT TIME STEP     15, STRESS PERIOD     17
 UBDSV06 SAVING           TO-MVR IN MODEL E13              PACKAGE SFR-1           CONNECTED TO MODEL E13              PACKAGE SFR-1            ON UNIT   1017 AT TIME STEP     15, STRESS PERIOD     17
 UBDSV06 SAVING              GWF IN MODEL E13              PACKAGE LAK-1           CONNECTED TO MODEL E13              PACKAGE E13              ON UNIT   1019 AT TIME STEP     15, STRESS PERIOD     17
 UBDSV06 SAVING         RAINFALL IN MODEL E13              PACKAGE LAK-1           CONNECTED TO MODEL E13              PACKAGE LAK-1            ON UNIT   1019 AT TIME STEP     15, STRESS PERIOD     17
 UBDSV06 SAVING      EVAPORATION IN MODEL E13              PACKAGE LAK-1           CONNECTED TO MODEL E13              PACKAGE LAK-1            ON UNIT   1019 AT TIME STEP     15, STRESS PERIOD     17
 UBDSV06 SAVING           RUNOFF IN MODEL E13              PACKAGE LAK-1           CONNECTED TO MODEL E13              PACKAGE LAK-1            ON UNIT   1019 AT TIME STEP     15, STRESS PERIOD     17
 UBDSV06 SAVING       EXT-INFLOW IN MODEL E13              PACKAGE LAK-1           CONNECTED TO MODEL E13              PACKAGE LAK-1            ON UNIT   1019 AT TIME STEP     15, STRESS PERIOD     17
 UBDSV06 SAVING       WITHDRAWAL IN MODEL E13              PACKAGE LAK-1           CONNECTED TO MODEL E13              PACKAGE LAK-1            ON UNIT   1019 AT TIME STEP     15, STRESS PERIOD     17
 UBDSV06 SAVING      EXT-OUTFLOW IN MODEL E13              PACKAGE LAK-1           CONNECTED TO MODEL E13              PACKAGE LAK-1            ON UNIT   1019 AT TIME STEP     15, STRESS PERIOD     17
 UBDSV06 SAVING          STORAGE IN MODEL E13              PACKAGE LAK-1           CONNECTED TO MODEL E13              PACKAGE LAK-1            ON UNIT   1019 AT TIME STEP     15, STRESS PERIOD     17
 UBDSV06 SAVING         CONSTANT IN MODEL E13              PACKAGE LAK-1           CONNECTED TO MODEL E13              PACKAGE LAK-1            ON UNIT   1019 AT TIME STEP     15, STRESS PERIOD     17
 UBDSV06 SAVING         FROM-MVR IN MODEL E13              PACKAGE LAK-1           CONNECTED TO MODEL E13              PACKAGE LAK-1            ON UNIT   1019 AT TIME STEP     15, STRESS PERIOD     17
 UBDSV06 SAVING           TO-MVR IN MODEL E13              PACKAGE LAK-1           CONNECTED TO MODEL E13              PACKAGE LAK-1            ON UNIT   1019 AT TIME STEP     15, STRESS PERIOD     17
 UBDSV06 SAVING     FLOW-JA-FACE IN MODEL E13              PACKAGE UZF-1           CONNECTED TO MODEL E13              PACKAGE UZF-1            ON UNIT   1021 AT TIME STEP     15, STRESS PERIOD     17
 UBDSV06 SAVING              GWF IN MODEL E13              PACKAGE UZF-1           CONNECTED TO MODEL E13              PACKAGE E13              ON UNIT   1021 AT TIME STEP     15, STRESS PERIOD     17
 UBDSV06 SAVING     INFILTRATION IN MODEL E13              PACKAGE UZF-1           CONNECTED TO MODEL E13              PACKAGE UZF-1            ON UNIT   1021 AT TIME STEP     15, STRESS PERIOD     17
 UBDSV06 SAVING          REJ-INF IN MODEL E13              PACKAGE UZF-1           CONNECTED TO MODEL E13              PACKAGE UZF-1            ON UNIT   1021 AT TIME STEP     15, STRESS PERIOD     17
 UBDSV06 SAVING             UZET IN MODEL E13              PACKAGE UZF-1           CONNECTED TO MODEL E13              PACKAGE UZF-1            ON UNIT   1021 AT TIME STEP     15, STRESS PERIOD     17
 UBDSV06 SAVING          STORAGE IN MODEL E13              PACKAGE UZF-1           CONNECTED TO MODEL E13              PACKAGE UZF-1            ON UNIT   1021 AT TIME STEP     15, STRESS PERIOD     17
 UBDSV06 SAVING         FROM-MVR IN MODEL E13              PACKAGE UZF-1           CONNECTED TO MODEL E13              PACKAGE UZF-1            ON UNIT   1021 AT TIME STEP     15, STRESS PERIOD     17
 UBDSV06 SAVING   REJ-INF-TO-MVR IN MODEL E13              PACKAGE UZF-1           CONNECTED TO MODEL E13              PACKAGE UZF-1            ON UNIT   1021 AT TIME STEP     15, STRESS PERIOD     17
 UBDSV06 SAVING       MOVER-FLOW IN MODEL E13              PACKAGE UZF-1           CONNECTED TO MODEL E13              PACKAGE UZF-1            ON UNIT   1023 AT TIME STEP     15, STRESS PERIOD     17
 UBDSV06 SAVING       MOVER-FLOW IN MODEL E13              PACKAGE UZF-1           CONNECTED TO MODEL E13              PACKAGE SFR-1            ON UNIT   1023 AT TIME STEP     15, STRESS PERIOD     17
 UBDSV06 SAVING       MOVER-FLOW IN MODEL E13              PACKAGE UZF-1           CONNECTED TO MODEL E13              PACKAGE LAK-1            ON UNIT   1023 AT TIME STEP     15, STRESS PERIOD     17
 UBDSV06 SAVING       MOVER-FLOW IN MODEL E13              PACKAGE UZF-1           CONNECTED TO MODEL E13              PACKAGE WEL-1            ON UNIT   1023 AT TIME STEP     15, STRESS PERIOD     17
 UBDSV06 SAVING       MOVER-FLOW IN MODEL E13              PACKAGE SFR-1           CONNECTED TO MODEL E13              PACKAGE UZF-1            ON UNIT   1023 AT TIME STEP     15, STRESS PERIOD     17
 UBDSV06 SAVING       MOVER-FLOW IN MODEL E13              PACKAGE SFR-1           CONNECTED TO MODEL E13              PACKAGE SFR-1            ON UNIT   1023 AT TIME STEP     15, STRESS PERIOD     17
 UBDSV06 SAVING       MOVER-FLOW IN MODEL E13              PACKAGE SFR-1           CONNECTED TO MODEL E13              PACKAGE LAK-1            ON UNIT   1023 AT TIME STEP     15, STRESS PERIOD     17
 UBDSV06 SAVING       MOVER-FLOW IN MODEL E13              PACKAGE SFR-1           CONNECTED TO MODEL E13              PACKAGE WEL-1            ON UNIT   1023 AT TIME STEP     15, STRESS PERIOD     17
 UBDSV06 SAVING       MOVER-FLOW IN MODEL E13              PACKAGE LAK-1           CONNECTED TO MODEL E13              PACKAGE UZF-1            ON UNIT   1023 AT TIME STEP     15, STRESS PERIOD     17
 UBDSV06 SAVING       MOVER-FLOW IN MODEL E13              PACKAGE LAK-1           CONNECTED TO MODEL E13              PACKAGE SFR-1            ON UNIT   1023 AT TIME STEP     15, STRESS PERIOD     17
 UBDSV06 SAVING       MOVER-FLOW IN MODEL E13              PACKAGE LAK-1           CONNECTED TO MODEL E13              PACKAGE LAK-1            ON UNIT   1023 AT TIME STEP     15, STRESS PERIOD     17
 UBDSV06 SAVING       MOVER-FLOW IN MODEL E13              PACKAGE LAK-1           CONNECTED TO MODEL E13              PACKAGE WEL-1            ON UNIT   1023 AT TIME STEP     15, STRESS PERIOD     17
 UBDSV06 SAVING       MOVER-FLOW IN MODEL E13              PACKAGE WEL-1           CONNECTED TO MODEL E13              PACKAGE UZF-1            ON UNIT   1023 AT TIME STEP     15, STRESS PERIOD     17
 UBDSV06 SAVING       MOVER-FLOW IN MODEL E13              PACKAGE WEL-1           CONNECTED TO MODEL E13              PACKAGE SFR-1            ON UNIT   1023 AT TIME STEP     15, STRESS PERIOD     17
 UBDSV06 SAVING       MOVER-FLOW IN MODEL E13              PACKAGE WEL-1           CONNECTED TO MODEL E13              PACKAGE LAK-1            ON UNIT   1023 AT TIME STEP     15, STRESS PERIOD     17
 UBDSV06 SAVING       MOVER-FLOW IN MODEL E13              PACKAGE WEL-1           CONNECTED TO MODEL E13              PACKAGE WEL-1            ON UNIT   1023 AT TIME STEP     15, STRESS PERIOD     17

 WEL PACKAGE (WEL-1) FLOW RATES   PERIOD     17   STEP       15
 -----------------------------------------------
   NUMBER   CELLID                    RATE      
 -----------------------------------------------
     1      (1,6,4)               0.0000000     
     2      (1,6,5)               0.0000000     
     3      (1,7,4)               0.0000000     
     4      (1,7,5)               0.0000000     
     5      (1,8,4)               0.0000000     
     6      (1,8,5)               0.0000000     
     7      (1,9,4)               0.0000000     
     8      (1,9,5)               0.0000000     
     9      (1,10,4)              0.0000000     
     10     (1,10,5)              0.0000000     
 -----------------------------------------------




 WEL PACKAGE (WEL-1) FLOW RATES TO-MVR   PERIOD     17   STEP       15
 -----------------------------------------------
   NUMBER   CELLID                    RATE      
 -----------------------------------------------
     1      (1,6,4)               0.0000000     
     2      (1,6,5)               0.0000000     
     3      (1,7,4)               0.0000000     
     4      (1,7,5)               0.0000000     
     5      (1,8,4)               0.0000000     
     6      (1,8,5)               0.0000000     
     7      (1,9,4)               0.0000000     
     8      (1,9,5)               0.0000000     
     9      (1,10,4)              0.0000000     
     10     (1,10,5)              0.0000000     
 -----------------------------------------------




 SFR PACKAGE (SFR-1) FLOW RATES   PERIOD     17   STEP       15
 ----------------------------------------------------------------------------------------
   NUMBER   CELLID                    RATE       NAME                                    
 ----------------------------------------------------------------------------------------
     1      (1,1,1)               0.22868377     ALLREACHES                              
     2      (1,2,2)               0.35499870     ALLREACHES                              
     3      (1,3,3)               0.30357347     ALLREACHES                              
     4      (1,3,4)               0.28021936     ALLREACHES                              
     5      (1,4,5)               0.29960805     ALLREACHES                              
     6      (1,5,6)               0.22987955     ALLREACHES                              
     7      (1,6,6)               0.22936563     ALLREACHES                              
     8      (1,7,6)               0.22884928     ALLREACHES                              
     9      (1,8,6)               0.22833044     ALLREACHES                              
     10     (1,3,5)               2.12214188E-02 ALLREACHES                              
     11     (1,3,6)               1.99133007E-02 ALLREACHES                              
     12     (1,3,7)               1.67956407E-02 ALLREACHES                              
     13     (1,4,8)               2.07205450E-02 ALLREACHES                              
     14     (1,5,8)               1.57905563E-02 ALLREACHES                              
     15     (1,6,8)               5.93648362E-03 ALLREACHES                              
     16     (1,5,10)              9.09197693E-02 ALLREACHES                              
     17     (1,5,9)               0.18157734     ALLREACHES                              
     18     (1,6,8)               0.12689514     ALLREACHES                              
     19     (1,6,8)               0.17138468     ALLREACHES                              
     20     (1,7,7)               0.21384773     ALLREACHES                              
     21     (1,8,7)               0.14943953     ALLREACHES                              
     22     (1,8,6)               0.10661428     ALLREACHES                              
     23     (1,9,6)               0.24837387     ALLREACHES                              
     24     (1,12,7)              2.55446066E-02 ALLREACHES                              
     25     (1,13,7)              2.80950086E-02 ALLREACHES                              
     26     (1,14,9)              2.6922030      ALLREACHES                              
     27     (1,13,8)              2.6824902      ALLREACHES                              
     28     (1,13,7)              2.6727412      ALLREACHES                              
     29     (1,13,6)             -2.0821593      ALLREACHES                              
     30     (1,13,2)             -3.3432832      ALLREACHES                              
     31     (1,13,1)             -1.3184237      ALLREACHES                              
 ----------------------------------------------------------------------------------------




 LAK PACKAGE (LAK-1) FLOW RATES   PERIOD     17   STEP       15
 -----------------------------------------------
   NUMBER   CELLID                    RATE      
 -----------------------------------------------
     1      (1,9,7)               8.09418245E-03
     2      (1,10,6)              1.04233697E-02
     3      (2,10,7)              0.94662248    
     4      (1,9,8)               5.54165898E-03
     5      (1,10,9)              1.05625610E-04
     6      (2,10,8)              0.92332356    
     7      (1,11,6)              1.12556508E-02
     8      (1,12,7)              1.04973502E-02
     9      (2,11,7)              0.94647197    
     10     (1,11,9)              2.63011758E-03
     11     (1,12,8)              1.00959687E-02
     12     (2,11,8)              0.92092954    
     13     (1,10,3)             -7.57508615E-04
     14     (1,11,2)             -1.29412361E-03
     15     (2,11,3)             -0.67967247    
     16     (1,10,4)             -1.41071424E-03
     17     (2,11,4)             -0.70119130    
     18     (1,10,5)             -3.38036782E-03
     19     (1,11,6)             -4.47197102E-03
     20     (2,11,5)             -0.72932110    
     21     (1,12,2)             -4.24777692E-03
     22     (2,12,3)             -0.64791220    
     23     (2,12,4)             -0.68275291    
     24     (1,12,6)             -6.08531328E-03
     25     (2,12,5)             -0.71906737    
     26     (1,13,2)             -1.22338058E-03
     27     (2,13,3)             -0.63341485    
     28     (2,13,4)             -0.67600966    
     29     (1,13,6)             -6.43859077E-03
     30     (2,13,5)             -0.71573924    
     31     (1,14,2)             -4.12075152E-03
     32     (1,15,3)              0.0000000     
     33     (2,14,3)             -0.64364213    
     34     (1,15,4)              0.0000000     
     35     (2,14,4)             -0.67835975    
     36     (1,14,6)             -4.16325673E-03
     37     (1,15,5)              0.0000000     
     38     (2,14,5)             -0.71449741    
 -----------------------------------------------




 SFR-1 PACKAGE - SUMMARY OF FLOWS FOR EACH CONTROL VOLUME   PERIOD     17   STEP       15
 --------------------------------------------------------------------------------------------------------------------------------------------------------------------------------------------------------
                                                                                                                                                                                               PERCENT   
   NUMBER   CELLID                  INFLOW      OUTFLOW        GWF        RAINFALL   EVAPORATION     RUNOFF     EXT INFLOW  EXT OUTFLOW    STORAGE      FROM MVR      TO MVR      IN - OUT    DIFFERENCE 
 --------------------------------------------------------------------------------------------------------------------------------------------------------------------------------------------------------
     1      (1,1,1)               0.0000      -24.771      -0.22868      0.0000       0.0000       0.0000       25.000       0.0000       0.0000       0.0000       0.0000       0.0000       0.0000     
     2      (1,2,2)               24.771      -24.416      -0.35500      0.0000       0.0000       0.0000       0.0000       0.0000       0.0000       0.0000       0.0000       0.0000       0.0000     
     3      (1,3,3)               24.416      -24.113      -0.30357      0.0000       0.0000       0.0000       0.0000       0.0000       0.0000       0.0000       0.0000       0.0000       0.0000     
     4      (1,3,4)               24.113      -23.833      -0.28022      0.0000       0.0000       0.0000       0.0000       0.0000       0.0000       0.0000       0.0000       0.0000       0.0000     
     5      (1,4,5)               13.833      -13.533      -0.29961      0.0000       0.0000       0.0000       0.0000       0.0000       0.0000       0.0000       0.0000       0.0000       0.0000     
     6      (1,5,6)               13.533      -13.303      -0.22988      0.0000       0.0000       0.0000       0.0000       0.0000       0.0000       0.0000       0.0000       0.0000       0.0000     
     7      (1,6,6)               13.303      -13.074      -0.22937      0.0000       0.0000       0.0000       0.0000       0.0000       0.0000       0.0000       0.0000       0.0000       0.0000     
     8      (1,7,6)               13.074      -12.845      -0.22885      0.0000       0.0000       0.0000       0.0000       0.0000       0.0000       0.0000       0.0000       0.0000       0.0000     
     9      (1,8,6)               12.845      -12.616      -0.22833      0.0000       0.0000       0.0000       0.0000       0.0000       0.0000       0.0000       0.0000       0.0000       0.0000     
     10     (1,3,5)               10.000      -9.9788      -2.12214E-02  0.0000       0.0000       0.0000       0.0000       0.0000       0.0000       0.0000       0.0000       0.0000       0.0000     
     11     (1,3,6)               9.9788      -9.9589      -1.99133E-02  0.0000       0.0000       0.0000       0.0000       0.0000       0.0000       0.0000       0.0000       0.0000       0.0000     
     12     (1,3,7)               9.9589      -9.9421      -1.67956E-02  0.0000       0.0000       0.0000       0.0000       0.0000       0.0000       0.0000       0.0000       0.0000       0.0000     
     13     (1,4,8)               9.9421      -9.9213      -2.07205E-02  0.0000       0.0000       0.0000       0.0000       0.0000       0.0000       0.0000       0.0000       0.0000       0.0000     
     14     (1,5,8)               9.9213      -9.9056      -1.57906E-02  0.0000       0.0000       0.0000       0.0000       0.0000       0.0000       0.0000       0.0000       0.0000       0.0000     
     15     (1,6,8)               9.9056      -9.8996      -5.93648E-03  0.0000       0.0000       0.0000       0.0000       0.0000       0.0000       0.0000       0.0000       0.0000       0.0000     
     16     (1,5,10)              0.0000      -9.9091      -9.09198E-02  0.0000       0.0000       0.0000       10.000       0.0000       0.0000       0.0000       0.0000       0.0000       0.0000     
     17     (1,5,9)               9.9091      -9.7275      -0.18158      0.0000       0.0000       0.0000       0.0000       0.0000       0.0000       0.0000       0.0000       0.0000       0.0000     
     18     (1,6,8)               9.7275      -9.6006      -0.12690      0.0000       0.0000       0.0000       0.0000       0.0000       0.0000       0.0000       0.0000       0.0000       0.0000     
     19     (1,6,8)               19.500      -19.329      -0.17138      0.0000       0.0000       0.0000       0.0000       0.0000       0.0000       0.0000       0.0000       0.0000       0.0000     
     20     (1,7,7)               19.329      -19.115      -0.21385      0.0000       0.0000       0.0000       0.0000       0.0000       0.0000       0.0000       0.0000       0.0000       0.0000     
     21     (1,8,7)               19.115      -18.966      -0.14944      0.0000       0.0000       0.0000       0.0000       0.0000       0.0000       0.0000       0.0000       0.0000       0.0000     
     22     (1,8,6)               18.966      -18.859      -0.10661      0.0000       0.0000       0.0000       0.0000       0.0000       0.0000       0.0000       0.0000       0.0000       0.0000     
     23     (1,9,6)               31.475       0.0000      -0.24837      0.0000       0.0000       0.0000       0.0000       0.0000       0.0000       0.0000      -31.227       0.0000       0.0000     
     24     (1,12,7)              0.0000      -32.896      -2.55446E-02  0.0000       0.0000       0.0000       0.0000       0.0000       0.0000       32.922       0.0000       0.0000       0.0000     
     25     (1,13,7)              32.896      -32.868      -2.80950E-02  0.0000       0.0000       0.0000       0.0000       0.0000       0.0000       0.0000       0.0000       0.0000       0.0000     
     26     (1,14,9)              0.0000      -147.31      -2.6922       0.0000       0.0000       0.0000       150.00       0.0000       0.0000       0.0000       0.0000       0.0000       0.0000     
     27     (1,13,8)              147.31      -144.63      -2.6825       0.0000       0.0000       0.0000       0.0000       0.0000       0.0000       0.0000       0.0000       0.0000       0.0000     
     28     (1,13,7)              144.63      -141.95      -2.6727       0.0000       0.0000       0.0000       0.0000       0.0000       0.0000       0.0000       0.0000       0.0000       0.0000     
     29     (1,13,6)              174.82       0.0000       2.0822       0.0000       0.0000       0.0000       0.0000      -5.61226E-09  0.0000       0.0000      -176.90       0.0000       0.0000     
     30     (1,13,2)              0.0000      -191.78       3.3433       0.0000       0.0000       0.0000       0.0000       0.0000       0.0000       188.44       0.0000       0.0000       0.0000     
     31     (1,13,1)              191.78       0.0000       1.3184       0.0000       0.0000       0.0000       0.0000      -200.06       0.0000       6.9616       0.0000       0.0000       0.0000     
 --------------------------------------------------------------------------------------------------------------------------------------------------------------------------------------------------------



 LAK-1 PACKAGE - SUMMARY OF FLOWS FOR EACH CONTROL VOLUME   PERIOD     17   STEP       15
 -----------------------------------------------------------------------------------------------------------------------------------------------------------------------------------
                                                                                                                                                                          PERCENT   
   NUMBER       GWF        RAINFALL   EVAPORATION     RUNOFF     EXT INFLOW   WITHDRAWAL  EXT OUTFLOW    STORAGE      CONSTANT     FROM MVR      TO MVR      IN - OUT    DIFFERENCE 
 -----------------------------------------------------------------------------------------------------------------------------------------------------------------------------------
     1      -3.7960       5.0000      -1.0000       1.5000       0.0000       0.0000       0.0000      -9.05207E-03  0.0000       31.227      -32.922       2.49916E-08  6.62433E-08
     2       8.2592       3.6000      -3.3000       3.0000       0.0000      -0.12000     -1.09318E-06 -5.66707E-02  0.0000       176.90      -188.29       1.15285E-07  6.01189E-08
 -----------------------------------------------------------------------------------------------------------------------------------------------------------------------------------



 WATER MOVER PACKAGE (MVR) FLOW RATES   PERIOD     17   STEP       15
 --------------------------------------------------------------------------------------------------------------------------
                                               PROVIDER  AVAILABLE   PROVIDED                                     RECEIVER 
   NUMBER           PROVIDER LOCATION             ID        RATE       RATE            RECEIVER LOCATION             ID    
 --------------------------------------------------------------------------------------------------------------------------
     1                  E13/SFR-1                 23      31.2       31.2                  E13/LAK-1                 1     
     2                  E13/LAK-1                 1       32.9       32.9                  E13/SFR-1                 24    
     3                  E13/SFR-1                 29      177.       177.                  E13/LAK-1                 2     
     4                  E13/LAK-1                 2       188.       188.                  E13/SFR-1                 30    
     5                  E13/UZF-1                 1       0.00       0.00                  E13/SFR-1                 1     
     6                  E13/UZF-1                 2       0.00       0.00                  E13/SFR-1                 2     
     7                  E13/UZF-1                 3       0.00       0.00                  E13/SFR-1                 2     
     8                  E13/UZF-1                 4       0.00       0.00                  E13/SFR-1                 2     
     9                  E13/UZF-1                 5       0.00       0.00                  E13/SFR-1                 3     
     10                 E13/UZF-1                 6       0.00       0.00                  E13/SFR-1                 11    
     11                 E13/UZF-1                 7       0.00       0.00                  E13/SFR-1                 12    
     12                 E13/UZF-1                 8       0.00       0.00                  E13/SFR-1                 12    
     13                 E13/UZF-1                 9       0.00       0.00                  E13/SFR-1                 2     
     14                 E13/UZF-1                 10      0.00       0.00                  E13/SFR-1                 3     
     15                 E13/UZF-1                 11      0.00       0.00                  E13/SFR-1                 4     
     16                 E13/UZF-1                 12      0.00       0.00                  E13/SFR-1                 10    
     17                 E13/UZF-1                 13      0.00       0.00                  E13/SFR-1                 11    
     18                 E13/UZF-1                 14      0.00       0.00                  E13/SFR-1                 12    
     19                 E13/UZF-1                 15      0.00       0.00                  E13/SFR-1                 13    
     20                 E13/UZF-1                 16      0.00       0.00                  E13/LAK-1                 2     
     21                 E13/UZF-1                 17      0.00       0.00                  E13/LAK-1                 2     
     22                 E13/UZF-1                 18      0.00       0.00                  E13/SFR-1                 3     
     23                 E13/UZF-1                 19      0.00       0.00                  E13/SFR-1                 4     
     24                 E13/UZF-1                 20      0.00       0.00                  E13/SFR-1                 5     
     25                 E13/UZF-1                 21      0.00       0.00                  E13/SFR-1                 6     
     26                 E13/UZF-1                 22      0.00       0.00                  E13/SFR-1                 6     
     27                 E13/UZF-1                 23      0.00       0.00                  E13/SFR-1                 13    
     28                 E13/UZF-1                 24      0.00       0.00                  E13/SFR-1                 17    
     29                 E13/UZF-1                 25      0.00       0.00                  E13/LAK-1                 2     
     30                 E13/UZF-1                 26      0.00       0.00                  E13/LAK-1                 2     
     31                 E13/UZF-1                 27      0.00       0.00                  E13/LAK-1                 2     
     32                 E13/UZF-1                 28      0.00       0.00                  E13/LAK-1                 2     
     33                 E13/UZF-1                 29      0.00       0.00                  E13/SFR-1                 5     
     34                 E13/UZF-1                 30      0.00       0.00                  E13/SFR-1                 6     
     35                 E13/UZF-1                 31      0.00       0.00                  E13/SFR-1                 6     
     36                 E13/UZF-1                 32      0.00       0.00                  E13/SFR-1                 14    
     37                 E13/UZF-1                 33      0.00       0.00                  E13/SFR-1                 17    
     38                 E13/UZF-1                 34      0.00       0.00                  E13/SFR-1                 16    
     39                 E13/UZF-1                 35      0.00       0.00                  E13/LAK-1                 2     
     40                 E13/UZF-1                 36      0.00       0.00                  E13/LAK-1                 2     
     41                 E13/UZF-1                 37      0.00       0.00                  E13/LAK-1                 2     
     42                 E13/UZF-1                 38      0.00       0.00                  E13/LAK-1                 2     
     43                 E13/UZF-1                 39      0.00       0.00                  E13/LAK-1                 2     
     44                 E13/UZF-1                 40      0.00       0.00                  E13/SFR-1                 7     
     45                 E13/UZF-1                 41      0.00       0.00                  E13/SFR-1                 7     
     46                 E13/UZF-1                 42      0.00       0.00                  E13/SFR-1                 19    
     47                 E13/UZF-1                 43      0.00       0.00                  E13/SFR-1                 17    
     48                 E13/UZF-1                 44      0.00       0.00                  E13/SFR-1                 16    
     49                 E13/UZF-1                 45      0.00       0.00                  E13/LAK-1                 2     
     50                 E13/UZF-1                 46      0.00       0.00                  E13/LAK-1                 2     
     51                 E13/UZF-1                 47      0.00       0.00                  E13/LAK-1                 2     
     52                 E13/UZF-1                 48      0.00       0.00                  E13/LAK-1                 2     
     53                 E13/UZF-1                 49      0.00       0.00                  E13/LAK-1                 2     
     54                 E13/UZF-1                 50      0.00       0.00                  E13/SFR-1                 8     
     55                 E13/UZF-1                 51      0.00       0.00                  E13/SFR-1                 20    
     56                 E13/UZF-1                 52      0.00       0.00                  E13/SFR-1                 20    
     57                 E13/UZF-1                 53      0.00       0.00                  E13/SFR-1                 20    
     58                 E13/UZF-1                 54      0.00       0.00                  E13/LAK-1                 2     
     59                 E13/UZF-1                 55      0.00       0.00                  E13/LAK-1                 2     
     60                 E13/UZF-1                 56      0.00       0.00                  E13/LAK-1                 2     
     61                 E13/UZF-1                 57      0.00       0.00                  E13/LAK-1                 2     
     62                 E13/UZF-1                 58      0.00       0.00                  E13/SFR-1                 9     
     63                 E13/UZF-1                 59      0.00       0.00                  E13/SFR-1                 21    
     64                 E13/UZF-1                 60      0.00       0.00                  E13/SFR-1                 21    
     65                 E13/UZF-1                 61      0.00       0.00                  E13/SFR-1                 21    
     66                 E13/UZF-1                 62      0.00       0.00                  E13/LAK-1                 2     
     67                 E13/UZF-1                 63      0.00       0.00                  E13/LAK-1                 2     
     68                 E13/UZF-1                 64      0.00       0.00                  E13/LAK-1                 2     
     69                 E13/UZF-1                 65      0.00       0.00                  E13/LAK-1                 2     
     70                 E13/UZF-1                 66      0.00       0.00                  E13/SFR-1                 23    
     71                 E13/UZF-1                 67      0.00       0.00                  E13/LAK-1                 1     
     72                 E13/UZF-1                 68      0.00       0.00                  E13/LAK-1                 1     
     73                 E13/UZF-1                 69      0.00       0.00                  E13/LAK-1                 1     
     74                 E13/UZF-1                 70      0.00       0.00                  E13/LAK-1                 2     
     75                 E13/UZF-1                 71      0.00       0.00                  E13/LAK-1                 2     
     76                 E13/UZF-1                 72      0.00       0.00                  E13/LAK-1                 2     
     77                 E13/UZF-1                 73      0.00       0.00                  E13/LAK-1                 2     
     78                 E13/UZF-1                 74      0.00       0.00                  E13/LAK-1                 1     
     79                 E13/UZF-1                 75      0.00       0.00                  E13/LAK-1                 1     
     80                 E13/UZF-1                 76      0.00       0.00                  E13/LAK-1                 1     
     81                 E13/UZF-1                 77      0.00       0.00                  E13/LAK-1                 2     
     82                 E13/UZF-1                 78      0.00       0.00                  E13/SFR-1                 9     
     83                 E13/UZF-1                 79      0.00       0.00                  E13/LAK-1                 1     
     84                 E13/UZF-1                 80      0.00       0.00                  E13/SFR-1                 31    
     85                 E13/UZF-1                 81      0.00       0.00                  E13/SFR-1                 30    
     86                 E13/UZF-1                 82      0.00       0.00                  E13/SFR-1                 9     
     87                 E13/UZF-1                 83      0.00       0.00                  E13/SFR-1                 24    
     88                 E13/UZF-1                 84      0.00       0.00                  E13/LAK-1                 1     
     89                 E13/UZF-1                 85      0.00       0.00                  E13/LAK-1                 1     
     90                 E13/UZF-1                 86      6.96       6.96                  E13/SFR-1                 31    
     91                 E13/UZF-1                 87      0.153      0.153                 E13/SFR-1                 30    
     92                 E13/UZF-1                 88      0.00       0.00                  E13/SFR-1                 29    
     93                 E13/UZF-1                 89      0.00       0.00                  E13/SFR-1                 28    
     94                 E13/UZF-1                 90      0.00       0.00                  E13/SFR-1                 27    
     95                 E13/UZF-1                 91      0.00       0.00                  E13/SFR-1                 26    
     96                 E13/UZF-1                 92      0.00       0.00                  E13/SFR-1                 30    
     97                 E13/UZF-1                 93      0.00       0.00                  E13/LAK-1                 2     
     98                 E13/UZF-1                 94      0.00       0.00                  E13/SFR-1                 28    
     99                 E13/UZF-1                 95      0.00       0.00                  E13/SFR-1                 27    
    100                 E13/UZF-1                 96      0.00       0.00                  E13/SFR-1                 26    
    101                 E13/UZF-1                 97      0.00       0.00                  E13/LAK-1                 2     
    102                 E13/UZF-1                 98      0.00       0.00                  E13/LAK-1                 2     
    103                 E13/UZF-1                 99      0.00       0.00                  E13/LAK-1                 2     
    104                 E13/UZF-1                100      0.00       0.00                  E13/LAK-1                 2     
    105                 E13/WEL-1                 1       0.00       0.00                  E13/UZF-1                 38    
    106                 E13/WEL-1                 2       0.00       0.00                  E13/UZF-1                 39    
    107                 E13/WEL-1                 3       0.00       0.00                  E13/UZF-1                 48    
    108                 E13/WEL-1                 4       0.00       0.00                  E13/UZF-1                 49    
    109                 E13/WEL-1                 5       0.00       0.00                  E13/UZF-1                 56    
    110                 E13/WEL-1                 6       0.00       0.00                  E13/UZF-1                 57    
    111                 E13/WEL-1                 7       0.00       0.00                  E13/UZF-1                 64    
    112                 E13/WEL-1                 8       0.00       0.00                  E13/UZF-1                 65    
    113                 E13/WEL-1                 9       0.00       0.00                  E13/UZF-1                 72    
    114                 E13/WEL-1                 10      0.00       0.00                  E13/UZF-1                 73    
 --------------------------------------------------------------------------------------------------------------------------



 SFR PACKAGE (SFR-1) STAGES FOR EACH CONTROL VOLUME   PERIOD     17   STEP       15
 ------------------------------------------------------------------------------------------------------------------------------------------------------
                                                                                                                               STREAMBED    STREAMBED  
 NAME                                       NUMBER   CELLID                  STAGE        DEPTH        WIDTH       GWF HEAD   CONDUCTANCE    GRADIENT  
 ------------------------------------------------------------------------------------------------------------------------------------------------------
 ALLREACHES                                   1      (1,1,1)               1094.3       1.2349       12.000       1020.2       5.40000E-02  1.4116     
 ALLREACHES                                   2      (1,2,2)               1089.3       1.2262       12.000       1020.8       8.40000E-02  1.4087     
 ALLREACHES                                   3      (1,3,3)               1083.6       1.2163       12.000       1020.8       7.20000E-02  1.4054     
 ALLREACHES                                   4      (1,3,4)               1078.6       1.2075       12.000       1020.8       6.66000E-02  1.4025     
 ALLREACHES                                   5      (1,4,5)               1072.8       0.84113      12.000       1020.8       7.80000E-02  1.2804     
 ALLREACHES                                   6      (1,5,6)               1067.3       0.83133      12.000       1020.4       6.00000E-02  1.2771     
 ALLREACHES                                   7      (1,6,6)               1062.6       0.82276      12.000       1019.5       6.00000E-02  1.2743     
 ALLREACHES                                   8      (1,7,6)               1057.9       0.81415      12.000       1019.3       6.00000E-02  1.2714     
 ALLREACHES                                   9      (1,8,6)               1053.2       0.80551      12.000       1019.2       6.00000E-02  1.2685     
 ALLREACHES                                   10     (1,3,5)               1074.6       0.93630      9.6364       1020.4       7.22727E-03  1.4681     
 ALLREACHES                                   11     (1,3,6)               1071.9       0.98022      8.9091       1020.5       6.68182E-03  1.4901     
 ALLREACHES                                   12     (1,3,7)               1069.3       1.0277       8.2182       1020.3       5.54727E-03  1.5139     
 ALLREACHES                                   13     (1,4,8)               1066.5       1.0884       7.4545       1019.9       6.70909E-03  1.5442     
 ALLREACHES                                   14     (1,5,8)               1063.6       1.1639       6.6545       1019.1       4.99091E-03  1.5819     
 ALLREACHES                                   15     (1,6,8)               1061.8       1.2200       6.1455       1019.7       1.84364E-03  1.6100     
 ALLREACHES                                   16     (1,5,10)              1078.4       0.63679      10.000       1020.0       2.50000E-02  1.2123     
 ALLREACHES                                   17     (1,5,9)               1071.5       0.63155      10.000       1020.3       5.00000E-02  1.2105     
 ALLREACHES                                   18     (1,6,8)               1063.8       0.62558      10.000       1019.7       3.50000E-02  1.2085     
 ALLREACHES                                   19     (1,6,8)               1060.0       1.2846       10.000       1019.7       4.00000E-02  1.4282     
 ALLREACHES                                   20     (1,7,7)               1056.9       1.2770       10.000       1019.4       5.00000E-02  1.4257     
 ALLREACHES                                   21     (1,8,7)               1054.1       1.2697       10.000       1019.2       3.50000E-02  1.4232     
 ALLREACHES                                   22     (1,8,6)               1052.1       1.2646       10.000       1019.2       2.50000E-02  1.4215     
 ALLREACHES                                   23     (1,9,6)               1046.6       1.1396       12.000       1018.7       6.00000E-02  1.3799     
 ALLREACHES                                   24     (1,12,7)              1037.7       1.2574       12.000       1020.2       6.00000E-03  1.4191     
 ALLREACHES                                   25     (1,13,7)              1030.2       1.2568       12.000       1023.4       6.60000E-03  1.4189     
 ALLREACHES                                   26     (1,14,9)              1034.8       1.4870       60.000       1027.7       0.60000      1.4957     
 ALLREACHES                                   27     (1,13,8)              1031.5       1.4708       60.000       1024.9       0.60000      1.4903     
 ALLREACHES                                   28     (1,13,7)              1028.1       1.4546       60.000       1023.4       0.60000      1.4849     
 ALLREACHES                                   29     (1,13,6)              1013.9       0.90974      60.000       1017.4       0.60000     -1.1568     
 ALLREACHES                                   30     (1,13,2)              998.30       1.4273       60.000       1003.9       0.60000     -1.8574     
 ALLREACHES                                   31     (1,13,1)              993.34       1.4688       60.000       997.01       0.36000     -1.2208     
 ------------------------------------------------------------------------------------------------------------------------------------------------------



 LAK PACKAGE (LAK-1) STAGES FOR EACH CONTROL VOLUME   PERIOD     17   STEP       15
 --------------------------------------------------------------
   NUMBER      STAGE     SURFACE AREA WETTED AREA     VOLUME   
 --------------------------------------------------------------
     1       1041.3       1.00000E+08  1.01383E+08  4.27581E+09
     2       1001.4       3.00000E+08  3.01479E+08  5.30072E+09
 --------------------------------------------------------------



 HEAD WILL BE SAVED ON UNIT 1026 AT END OF TIME STEP   15, STRESS PERIOD   17


  SFR-1 BUDGET FOR ENTIRE MODEL AT END OF TIME STEP   15, STRESS PERIOD  17
  ------------------------------------------------------------------------------

     CUMULATIVE SFR-1      L**3       RATES FOR THIS TIME STEP      L**3/T
     ------------------                 ------------------------

           IN:                                      IN:
           ---                                      ---
                 GWF =   274536177.1178                   GWF =           6.7439
            RAINFALL =           0.0000              RAINFALL =           0.0000
         EVAPORATION =           0.0000           EVAPORATION =           0.0000
              RUNOFF =           0.0000                RUNOFF =           0.0000
          EXT-INFLOW =  8265060000.0000            EXT-INFLOW =         185.0000
         EXT-OUTFLOW =       1.7046E-02           EXT-OUTFLOW =           0.0000
             STORAGE =           0.0000               STORAGE =           0.0000
            FROM-MVR = 10109733333.1855              FROM-MVR =         228.3220
              TO-MVR =           0.0000                TO-MVR =           0.0000

            TOTAL IN = 18649329510.3203              TOTAL IN =         420.0658

          OUT:                                     OUT:
          ----                                     ----
                 GWF =   530480787.2098                   GWF =          11.8740
            RAINFALL =           0.0000              RAINFALL =           0.0000
         EVAPORATION =           0.0000           EVAPORATION =           0.0000
              RUNOFF =           0.0000                RUNOFF =           0.0000
          EXT-INFLOW =           0.0000            EXT-INFLOW =           0.0000
         EXT-OUTFLOW =  8844621480.5253           EXT-OUTFLOW =         200.0616
             STORAGE =           0.0000               STORAGE =           0.0000
            FROM-MVR =           0.0000              FROM-MVR =           0.0000
              TO-MVR =  9274227242.5853                TO-MVR =         208.1302

           TOTAL OUT = 18649329510.3203             TOTAL OUT =         420.0658

            IN - OUT =       7.6294E-06              IN - OUT =           0.0000

 PERCENT DISCREPANCY =           0.00     PERCENT DISCREPANCY =           0.00



  LAK-1 BUDGET FOR ENTIRE MODEL AT END OF TIME STEP   15, STRESS PERIOD  17
  ------------------------------------------------------------------------------

     CUMULATIVE LAK-1      L**3       RATES FOR THIS TIME STEP      L**3/T
     ------------------                 ------------------------

           IN:                                      IN:
           ---                                      ---
                 GWF =   348786699.3415                   GWF =           8.2592
            RAINFALL =   384213600.0000              RAINFALL =           8.6000
         EVAPORATION =           0.0000           EVAPORATION =           0.0000
              RUNOFF =   201042000.0000                RUNOFF =           4.5000
          EXT-INFLOW =           0.0000            EXT-INFLOW =           0.0000
          WITHDRAWAL =           0.0000            WITHDRAWAL =           0.0000
         EXT-OUTFLOW =           1.4865           EXT-OUTFLOW =           0.0000
             STORAGE =      334885.2259               STORAGE =           0.0000
            CONSTANT =           0.0000              CONSTANT =           0.0000
            FROM-MVR =  9274227242.5853              FROM-MVR =         208.1302
              TO-MVR =           0.0000                TO-MVR =           0.0000

            TOTAL IN = 10208604428.6392              TOTAL IN =         229.4893

          OUT:                                     OUT:
          ----                                     ----
                 GWF =   178309071.6070                   GWF =           3.7960
            RAINFALL =           0.0000              RAINFALL =           0.0000
         EVAPORATION =   192106800.0000           EVAPORATION =           4.3000
              RUNOFF =           0.0000                RUNOFF =           0.0000
          EXT-INFLOW =           0.0000            EXT-INFLOW =           0.0000
          WITHDRAWAL =     5361120.0000            WITHDRAWAL =           0.1200
         EXT-OUTFLOW =           3.4129           EXT-OUTFLOW =       1.0932E-06
             STORAGE =     3582121.4240               STORAGE =       6.5723E-02
            CONSTANT =           0.0000              CONSTANT =           0.0000
            FROM-MVR =           0.0000              FROM-MVR =           0.0000
              TO-MVR =  9829245316.2753                TO-MVR =         221.2076

           TOTAL OUT = 10208604432.7192             TOTAL OUT =         229.4893

            IN - OUT =          -4.0800              IN - OUT =       1.4028E-07

 PERCENT DISCREPANCY =          -0.00     PERCENT DISCREPANCY =           0.00



  UZF-1 BUDGET FOR ENTIRE MODEL AT END OF TIME STEP   15, STRESS PERIOD  17
  ------------------------------------------------------------------------------

     CUMULATIVE UZF-1      L**3       RATES FOR THIS TIME STEP      L**3/T
     ------------------                 ------------------------

           IN:                                      IN:
           ---                                      ---
                 GWF =           0.0000                   GWF =           0.0000
        INFILTRATION =  4938972271.2000          INFILTRATION =         191.2500
             REJ-INF =           0.0000               REJ-INF =           0.0000
                UZET =           0.0000                  UZET =           0.0000
             STORAGE =  1603180866.7228               STORAGE =           4.4609
            FROM-MVR =   201042000.0000              FROM-MVR =           0.0000
      REJ-INF-TO-MVR =           0.0000        REJ-INF-TO-MVR =           0.0000

            TOTAL IN =  6743195137.9228              TOTAL IN =         195.7109

          OUT:                                     OUT:
          ----                                     ----
                 GWF =  1086432612.6358                   GWF =          30.7511
        INFILTRATION =           0.0000          INFILTRATION =           0.0000
             REJ-INF =          62.1453               REJ-INF =       1.9248E-05
                UZET =   934265709.4868                  UZET =          21.9052
             STORAGE =  4705429728.1375               STORAGE =         142.2769
            FROM-MVR =           0.0000              FROM-MVR =           0.0000
      REJ-INF-TO-MVR =    17066952.2093        REJ-INF-TO-MVR =           0.7777

           TOTAL OUT =  6743195064.6147             TOTAL OUT =         195.7109

            IN - OUT =          73.3081              IN - OUT =       3.0270E-06

 PERCENT DISCREPANCY =           0.00     PERCENT DISCREPANCY =           0.00



  WATER MOVER BUDGET FOR ENTIRE MODEL AT END OF TIME STEP   15, STRESS PERIOD  17
  ------------------------------------------------------------------------------

     CUMULATIVE WATER MOVER      L**3       RATES FOR THIS TIME STEP      L**3/T
     ------------------                 ------------------------

           IN:                                      IN:
           ---                                      ---
               UZF-1 =   280488016.9102                 UZF-1 =           7.1143
               SFR-1 =  9274227242.5853                 SFR-1 =         208.1302
               LAK-1 =  9829245316.2753                 LAK-1 =         221.2076
               WEL-1 =   201042000.0000                 WEL-1 =           0.0000

            TOTAL IN = 19585002575.7708              TOTAL IN =         436.4521

          OUT:                                     OUT:
          ----                                     ----
               UZF-1 =   201042000.0000                 UZF-1 =           0.0000
               SFR-1 = 10109733333.1855                 SFR-1 =         228.3220
               LAK-1 =  9274227242.5853                 LAK-1 =         208.1302
               WEL-1 =           0.0000                 WEL-1 =           0.0000

           TOTAL OUT = 19585002575.7708             TOTAL OUT =         436.4521

            IN - OUT =      -3.8147E-06              IN - OUT =           0.0000

 PERCENT DISCREPANCY =          -0.00     PERCENT DISCREPANCY =           0.00



  VOLUME BUDGET FOR ENTIRE MODEL AT END OF TIME STEP   15, STRESS PERIOD  17
  ---------------------------------------------------------------------------------------------------

     CUMULATIVE VOLUME      L**3       RATES FOR THIS TIME STEP      L**3/T          PACKAGE NAME    
     ------------------                 ------------------------                     ----------------

           IN:                                      IN:
           ---                                      ---
              STO-SS =      884101.8875                STO-SS =       2.9117E-03     STORAGE                          
              STO-SY =   269867756.4076                STO-SY =           0.8454     STORAGE                          
                 WEL =           0.0000                   WEL =           0.0000     WEL-1                            
          WEL-TO-MVR =           0.0000            WEL-TO-MVR =           0.0000     WEL-1                            
                 GHB =    31049492.6041                   GHB =           0.6591     GHB_0                            
                 SFR =   530480787.2098                   SFR =          11.8740     SFR-1                            
                 LAK =   178309071.6070                   LAK =           3.7960     LAK-1                            
           UZF-GWRCH =  1086432612.6358             UZF-GWRCH =          30.7511     UZF-1                            
             UZF-GWD =           0.0000               UZF-GWD =           0.0000     UZF-1                            
      UZF-GWD TO-MVR =           0.0000        UZF-GWD TO-MVR =           0.0000     UZF-1                            
            UZF-GWET =           0.0000              UZF-GWET =           0.0000     UZF-1                            

            TOTAL IN =  2097023822.3517              TOTAL IN =          47.9284

          OUT:                                     OUT:
          ----                                     ----
              STO-SS =     4380082.4962                STO-SS =       8.2611E-02     STORAGE                          
              STO-SY =   964114236.8354                STO-SY =          25.5566     STORAGE                          
                 WEL =           0.0000                   WEL =           0.0000     WEL-1                            
          WEL-TO-MVR =   201042000.0000            WEL-TO-MVR =           0.0000     WEL-1                            
                 GHB =    15286835.8404                   GHB =           0.3422     GHB_0                            
                 SFR =   274536497.5533                   SFR =           6.7439     SFR-1                            
                 LAK =   348786699.3415                   LAK =           8.2592     LAK-1                            
           UZF-GWRCH =           0.0000             UZF-GWRCH =           0.0000     UZF-1                            
             UZF-GWD =         116.0747               UZF-GWD =       7.7717E-07     UZF-1                            
      UZF-GWD TO-MVR =   263421064.7009        UZF-GWD TO-MVR =           6.3366     UZF-1                            
            UZF-GWET =    25444065.2282              UZF-GWET =           0.6071     UZF-1                            

           TOTAL OUT =  2097011598.0706             TOTAL OUT =          47.9282

            IN - OUT =       12224.2811              IN - OUT =       1.9278E-04

 PERCENT DISCREPANCY =           0.00     PERCENT DISCREPANCY =           0.00




         TIME SUMMARY AT END OF TIME STEP   15 IN STRESS PERIOD   17
                    SECONDS     MINUTES      HOURS       DAYS        YEARS
                    -----------------------------------------------------------
   TIME STEP LENGTH 1.75200E+05  2920.0      48.667      2.0278     5.55175E-03
 STRESS PERIOD TIME 2.62800E+06  43800.      730.00      30.417     8.32763E-02
         TOTAL TIME 4.46760E+07 7.44600E+05  12410.      517.08      1.4157    


end timestep


start timestep kper="18" kstp="1" mode="normal"


 OUTPUT CONTROL FOR STRESS PERIOD 18 IS REPEATED USING SETTINGS FROM A PREVIOUS STRESS PERIOD.


 STRESS PERIOD 18 IS TRANSIENT


 REUSING MVRS FROM LAST STRESS PERIOD

 REUSING SFRS FROM LAST STRESS PERIOD

 REUSING LAKS FROM LAST STRESS PERIOD

end timestep


start timestep kper="18" kstp="2" mode="normal"


end timestep


start timestep kper="18" kstp="3" mode="normal"


end timestep


start timestep kper="18" kstp="4" mode="normal"


end timestep


start timestep kper="18" kstp="5" mode="normal"


end timestep


start timestep kper="18" kstp="6" mode="normal"


end timestep


start timestep kper="18" kstp="7" mode="normal"


end timestep


start timestep kper="18" kstp="8" mode="normal"


end timestep


start timestep kper="18" kstp="9" mode="normal"


end timestep


start timestep kper="18" kstp="10" mode="normal"


end timestep


start timestep kper="18" kstp="11" mode="normal"


end timestep


start timestep kper="18" kstp="12" mode="normal"


end timestep


start timestep kper="18" kstp="13" mode="normal"


end timestep


start timestep kper="18" kstp="14" mode="normal"


end timestep


start timestep kper="18" kstp="15" mode="normal"

 UBDSV1 SAVING           STO-SS ON UNIT   1025 AT TIME STEP     15, STRESS PERIOD     18
 UBDSV1 SAVING           STO-SY ON UNIT   1025 AT TIME STEP     15, STRESS PERIOD     18
 UBDSV1 SAVING     FLOW-JA-FACE ON UNIT   1025 AT TIME STEP     15, STRESS PERIOD     18
 UBDSV06 SAVING       DATA-SPDIS IN MODEL E13              PACKAGE NPF             CONNECTED TO MODEL E13              PACKAGE NPF              ON UNIT   1025 AT TIME STEP     15, STRESS PERIOD     18
 UBDSV06 SAVING              WEL IN MODEL E13              PACKAGE E13             CONNECTED TO MODEL E13              PACKAGE WEL-1            ON UNIT   1025 AT TIME STEP     15, STRESS PERIOD     18
 UBDSV06 SAVING       WEL-TO-MVR IN MODEL E13              PACKAGE E13             CONNECTED TO MODEL E13              PACKAGE WEL-1            ON UNIT   1025 AT TIME STEP     15, STRESS PERIOD     18
 UBDSV06 SAVING              GHB IN MODEL E13              PACKAGE E13             CONNECTED TO MODEL E13              PACKAGE GHB_0            ON UNIT   1025 AT TIME STEP     15, STRESS PERIOD     18
 UBDSV06 SAVING              SFR IN MODEL E13              PACKAGE E13             CONNECTED TO MODEL E13              PACKAGE SFR-1            ON UNIT   1025 AT TIME STEP     15, STRESS PERIOD     18
 UBDSV06 SAVING              LAK IN MODEL E13              PACKAGE E13             CONNECTED TO MODEL E13              PACKAGE LAK-1            ON UNIT   1025 AT TIME STEP     15, STRESS PERIOD     18
 UBDSV06 SAVING        UZF-GWRCH IN MODEL E13              PACKAGE E13             CONNECTED TO MODEL E13              PACKAGE UZF-1            ON UNIT   1025 AT TIME STEP     15, STRESS PERIOD     18
 UBDSV06 SAVING          UZF-GWD IN MODEL E13              PACKAGE E13             CONNECTED TO MODEL E13              PACKAGE UZF-1            ON UNIT   1025 AT TIME STEP     15, STRESS PERIOD     18
 UBDSV06 SAVING   UZF-GWD TO-MVR IN MODEL E13              PACKAGE E13             CONNECTED TO MODEL E13              PACKAGE UZF-1            ON UNIT   1025 AT TIME STEP     15, STRESS PERIOD     18
 UBDSV06 SAVING         UZF-GWET IN MODEL E13              PACKAGE E13             CONNECTED TO MODEL E13              PACKAGE UZF-1            ON UNIT   1025 AT TIME STEP     15, STRESS PERIOD     18
 UBDSV06 SAVING     FLOW-JA-FACE IN MODEL E13              PACKAGE SFR-1           CONNECTED TO MODEL E13              PACKAGE SFR-1            ON UNIT   1017 AT TIME STEP     15, STRESS PERIOD     18
 UBDSV06 SAVING              GWF IN MODEL E13              PACKAGE SFR-1           CONNECTED TO MODEL E13              PACKAGE E13              ON UNIT   1017 AT TIME STEP     15, STRESS PERIOD     18
 UBDSV06 SAVING         RAINFALL IN MODEL E13              PACKAGE SFR-1           CONNECTED TO MODEL E13              PACKAGE SFR-1            ON UNIT   1017 AT TIME STEP     15, STRESS PERIOD     18
 UBDSV06 SAVING      EVAPORATION IN MODEL E13              PACKAGE SFR-1           CONNECTED TO MODEL E13              PACKAGE SFR-1            ON UNIT   1017 AT TIME STEP     15, STRESS PERIOD     18
 UBDSV06 SAVING           RUNOFF IN MODEL E13              PACKAGE SFR-1           CONNECTED TO MODEL E13              PACKAGE SFR-1            ON UNIT   1017 AT TIME STEP     15, STRESS PERIOD     18
 UBDSV06 SAVING       EXT-INFLOW IN MODEL E13              PACKAGE SFR-1           CONNECTED TO MODEL E13              PACKAGE SFR-1            ON UNIT   1017 AT TIME STEP     15, STRESS PERIOD     18
 UBDSV06 SAVING      EXT-OUTFLOW IN MODEL E13              PACKAGE SFR-1           CONNECTED TO MODEL E13              PACKAGE SFR-1            ON UNIT   1017 AT TIME STEP     15, STRESS PERIOD     18
 UBDSV06 SAVING          STORAGE IN MODEL E13              PACKAGE SFR-1           CONNECTED TO MODEL E13              PACKAGE SFR-1            ON UNIT   1017 AT TIME STEP     15, STRESS PERIOD     18
 UBDSV06 SAVING         FROM-MVR IN MODEL E13              PACKAGE SFR-1           CONNECTED TO MODEL E13              PACKAGE SFR-1            ON UNIT   1017 AT TIME STEP     15, STRESS PERIOD     18
 UBDSV06 SAVING           TO-MVR IN MODEL E13              PACKAGE SFR-1           CONNECTED TO MODEL E13              PACKAGE SFR-1            ON UNIT   1017 AT TIME STEP     15, STRESS PERIOD     18
 UBDSV06 SAVING              GWF IN MODEL E13              PACKAGE LAK-1           CONNECTED TO MODEL E13              PACKAGE E13              ON UNIT   1019 AT TIME STEP     15, STRESS PERIOD     18
 UBDSV06 SAVING         RAINFALL IN MODEL E13              PACKAGE LAK-1           CONNECTED TO MODEL E13              PACKAGE LAK-1            ON UNIT   1019 AT TIME STEP     15, STRESS PERIOD     18
 UBDSV06 SAVING      EVAPORATION IN MODEL E13              PACKAGE LAK-1           CONNECTED TO MODEL E13              PACKAGE LAK-1            ON UNIT   1019 AT TIME STEP     15, STRESS PERIOD     18
 UBDSV06 SAVING           RUNOFF IN MODEL E13              PACKAGE LAK-1           CONNECTED TO MODEL E13              PACKAGE LAK-1            ON UNIT   1019 AT TIME STEP     15, STRESS PERIOD     18
 UBDSV06 SAVING       EXT-INFLOW IN MODEL E13              PACKAGE LAK-1           CONNECTED TO MODEL E13              PACKAGE LAK-1            ON UNIT   1019 AT TIME STEP     15, STRESS PERIOD     18
 UBDSV06 SAVING       WITHDRAWAL IN MODEL E13              PACKAGE LAK-1           CONNECTED TO MODEL E13              PACKAGE LAK-1            ON UNIT   1019 AT TIME STEP     15, STRESS PERIOD     18
 UBDSV06 SAVING      EXT-OUTFLOW IN MODEL E13              PACKAGE LAK-1           CONNECTED TO MODEL E13              PACKAGE LAK-1            ON UNIT   1019 AT TIME STEP     15, STRESS PERIOD     18
 UBDSV06 SAVING          STORAGE IN MODEL E13              PACKAGE LAK-1           CONNECTED TO MODEL E13              PACKAGE LAK-1            ON UNIT   1019 AT TIME STEP     15, STRESS PERIOD     18
 UBDSV06 SAVING         CONSTANT IN MODEL E13              PACKAGE LAK-1           CONNECTED TO MODEL E13              PACKAGE LAK-1            ON UNIT   1019 AT TIME STEP     15, STRESS PERIOD     18
 UBDSV06 SAVING         FROM-MVR IN MODEL E13              PACKAGE LAK-1           CONNECTED TO MODEL E13              PACKAGE LAK-1            ON UNIT   1019 AT TIME STEP     15, STRESS PERIOD     18
 UBDSV06 SAVING           TO-MVR IN MODEL E13              PACKAGE LAK-1           CONNECTED TO MODEL E13              PACKAGE LAK-1            ON UNIT   1019 AT TIME STEP     15, STRESS PERIOD     18
 UBDSV06 SAVING     FLOW-JA-FACE IN MODEL E13              PACKAGE UZF-1           CONNECTED TO MODEL E13              PACKAGE UZF-1            ON UNIT   1021 AT TIME STEP     15, STRESS PERIOD     18
 UBDSV06 SAVING              GWF IN MODEL E13              PACKAGE UZF-1           CONNECTED TO MODEL E13              PACKAGE E13              ON UNIT   1021 AT TIME STEP     15, STRESS PERIOD     18
 UBDSV06 SAVING     INFILTRATION IN MODEL E13              PACKAGE UZF-1           CONNECTED TO MODEL E13              PACKAGE UZF-1            ON UNIT   1021 AT TIME STEP     15, STRESS PERIOD     18
 UBDSV06 SAVING          REJ-INF IN MODEL E13              PACKAGE UZF-1           CONNECTED TO MODEL E13              PACKAGE UZF-1            ON UNIT   1021 AT TIME STEP     15, STRESS PERIOD     18
 UBDSV06 SAVING             UZET IN MODEL E13              PACKAGE UZF-1           CONNECTED TO MODEL E13              PACKAGE UZF-1            ON UNIT   1021 AT TIME STEP     15, STRESS PERIOD     18
 UBDSV06 SAVING          STORAGE IN MODEL E13              PACKAGE UZF-1           CONNECTED TO MODEL E13              PACKAGE UZF-1            ON UNIT   1021 AT TIME STEP     15, STRESS PERIOD     18
 UBDSV06 SAVING         FROM-MVR IN MODEL E13              PACKAGE UZF-1           CONNECTED TO MODEL E13              PACKAGE UZF-1            ON UNIT   1021 AT TIME STEP     15, STRESS PERIOD     18
 UBDSV06 SAVING   REJ-INF-TO-MVR IN MODEL E13              PACKAGE UZF-1           CONNECTED TO MODEL E13              PACKAGE UZF-1            ON UNIT   1021 AT TIME STEP     15, STRESS PERIOD     18
 UBDSV06 SAVING       MOVER-FLOW IN MODEL E13              PACKAGE UZF-1           CONNECTED TO MODEL E13              PACKAGE UZF-1            ON UNIT   1023 AT TIME STEP     15, STRESS PERIOD     18
 UBDSV06 SAVING       MOVER-FLOW IN MODEL E13              PACKAGE UZF-1           CONNECTED TO MODEL E13              PACKAGE SFR-1            ON UNIT   1023 AT TIME STEP     15, STRESS PERIOD     18
 UBDSV06 SAVING       MOVER-FLOW IN MODEL E13              PACKAGE UZF-1           CONNECTED TO MODEL E13              PACKAGE LAK-1            ON UNIT   1023 AT TIME STEP     15, STRESS PERIOD     18
 UBDSV06 SAVING       MOVER-FLOW IN MODEL E13              PACKAGE UZF-1           CONNECTED TO MODEL E13              PACKAGE WEL-1            ON UNIT   1023 AT TIME STEP     15, STRESS PERIOD     18
 UBDSV06 SAVING       MOVER-FLOW IN MODEL E13              PACKAGE SFR-1           CONNECTED TO MODEL E13              PACKAGE UZF-1            ON UNIT   1023 AT TIME STEP     15, STRESS PERIOD     18
 UBDSV06 SAVING       MOVER-FLOW IN MODEL E13              PACKAGE SFR-1           CONNECTED TO MODEL E13              PACKAGE SFR-1            ON UNIT   1023 AT TIME STEP     15, STRESS PERIOD     18
 UBDSV06 SAVING       MOVER-FLOW IN MODEL E13              PACKAGE SFR-1           CONNECTED TO MODEL E13              PACKAGE LAK-1            ON UNIT   1023 AT TIME STEP     15, STRESS PERIOD     18
 UBDSV06 SAVING       MOVER-FLOW IN MODEL E13              PACKAGE SFR-1           CONNECTED TO MODEL E13              PACKAGE WEL-1            ON UNIT   1023 AT TIME STEP     15, STRESS PERIOD     18
 UBDSV06 SAVING       MOVER-FLOW IN MODEL E13              PACKAGE LAK-1           CONNECTED TO MODEL E13              PACKAGE UZF-1            ON UNIT   1023 AT TIME STEP     15, STRESS PERIOD     18
 UBDSV06 SAVING       MOVER-FLOW IN MODEL E13              PACKAGE LAK-1           CONNECTED TO MODEL E13              PACKAGE SFR-1            ON UNIT   1023 AT TIME STEP     15, STRESS PERIOD     18
 UBDSV06 SAVING       MOVER-FLOW IN MODEL E13              PACKAGE LAK-1           CONNECTED TO MODEL E13              PACKAGE LAK-1            ON UNIT   1023 AT TIME STEP     15, STRESS PERIOD     18
 UBDSV06 SAVING       MOVER-FLOW IN MODEL E13              PACKAGE LAK-1           CONNECTED TO MODEL E13              PACKAGE WEL-1            ON UNIT   1023 AT TIME STEP     15, STRESS PERIOD     18
 UBDSV06 SAVING       MOVER-FLOW IN MODEL E13              PACKAGE WEL-1           CONNECTED TO MODEL E13              PACKAGE UZF-1            ON UNIT   1023 AT TIME STEP     15, STRESS PERIOD     18
 UBDSV06 SAVING       MOVER-FLOW IN MODEL E13              PACKAGE WEL-1           CONNECTED TO MODEL E13              PACKAGE SFR-1            ON UNIT   1023 AT TIME STEP     15, STRESS PERIOD     18
 UBDSV06 SAVING       MOVER-FLOW IN MODEL E13              PACKAGE WEL-1           CONNECTED TO MODEL E13              PACKAGE LAK-1            ON UNIT   1023 AT TIME STEP     15, STRESS PERIOD     18
 UBDSV06 SAVING       MOVER-FLOW IN MODEL E13              PACKAGE WEL-1           CONNECTED TO MODEL E13              PACKAGE WEL-1            ON UNIT   1023 AT TIME STEP     15, STRESS PERIOD     18

 WEL PACKAGE (WEL-1) FLOW RATES   PERIOD     18   STEP       15
 -----------------------------------------------
   NUMBER   CELLID                    RATE      
 -----------------------------------------------
     1      (1,6,4)               0.0000000     
     2      (1,6,5)               0.0000000     
     3      (1,7,4)               0.0000000     
     4      (1,7,5)               0.0000000     
     5      (1,8,4)               0.0000000     
     6      (1,8,5)               0.0000000     
     7      (1,9,4)               0.0000000     
     8      (1,9,5)               0.0000000     
     9      (1,10,4)              0.0000000     
     10     (1,10,5)              0.0000000     
 -----------------------------------------------




 WEL PACKAGE (WEL-1) FLOW RATES TO-MVR   PERIOD     18   STEP       15
 -----------------------------------------------
   NUMBER   CELLID                    RATE      
 -----------------------------------------------
     1      (1,6,4)               0.0000000     
     2      (1,6,5)               0.0000000     
     3      (1,7,4)               0.0000000     
     4      (1,7,5)               0.0000000     
     5      (1,8,4)               0.0000000     
     6      (1,8,5)               0.0000000     
     7      (1,9,4)               0.0000000     
     8      (1,9,5)               0.0000000     
     9      (1,10,4)              0.0000000     
     10     (1,10,5)              0.0000000     
 -----------------------------------------------




 SFR PACKAGE (SFR-1) FLOW RATES   PERIOD     18   STEP       15
 ----------------------------------------------------------------------------------------
   NUMBER   CELLID                    RATE       NAME                                    
 ----------------------------------------------------------------------------------------
     1      (1,1,1)               0.22868377     ALLREACHES                              
     2      (1,2,2)               0.35499870     ALLREACHES                              
     3      (1,3,3)               0.30357347     ALLREACHES                              
     4      (1,3,4)               0.28021936     ALLREACHES                              
     5      (1,4,5)               0.29960805     ALLREACHES                              
     6      (1,5,6)               0.22987955     ALLREACHES                              
     7      (1,6,6)               0.22936563     ALLREACHES                              
     8      (1,7,6)               0.22884928     ALLREACHES                              
     9      (1,8,6)               0.22833044     ALLREACHES                              
     10     (1,3,5)               2.12214188E-02 ALLREACHES                              
     11     (1,3,6)               1.99133007E-02 ALLREACHES                              
     12     (1,3,7)               1.67956407E-02 ALLREACHES                              
     13     (1,4,8)               2.07205450E-02 ALLREACHES                              
     14     (1,5,8)               1.57905563E-02 ALLREACHES                              
     15     (1,6,8)               5.93648362E-03 ALLREACHES                              
     16     (1,5,10)              9.09197693E-02 ALLREACHES                              
     17     (1,5,9)               0.18157734     ALLREACHES                              
     18     (1,6,8)               0.12689514     ALLREACHES                              
     19     (1,6,8)               0.17138468     ALLREACHES                              
     20     (1,7,7)               0.21384773     ALLREACHES                              
     21     (1,8,7)               0.14943953     ALLREACHES                              
     22     (1,8,6)               0.10661428     ALLREACHES                              
     23     (1,9,6)               0.24837387     ALLREACHES                              
     24     (1,12,7)              2.55475105E-02 ALLREACHES                              
     25     (1,13,7)              2.80982034E-02 ALLREACHES                              
     26     (1,14,9)              2.6922030      ALLREACHES                              
     27     (1,13,8)              2.6824902      ALLREACHES                              
     28     (1,13,7)              2.5976560      ALLREACHES                              
     29     (1,13,6)             -2.2846256      ALLREACHES                              
     30     (1,13,2)             -3.3660047      ALLREACHES                              
     31     (1,13,1)             -1.3164121      ALLREACHES                              
 ----------------------------------------------------------------------------------------




 LAK PACKAGE (LAK-1) FLOW RATES   PERIOD     18   STEP       15
 -----------------------------------------------
   NUMBER   CELLID                    RATE      
 -----------------------------------------------
     1      (1,9,7)               8.04816144E-03
     2      (1,10,6)              1.03577411E-02
     3      (2,10,7)              0.93723244    
     4      (1,9,8)               5.47552597E-03
     5      (1,10,9)              1.05656990E-04
     6      (2,10,8)              0.91616818    
     7      (1,11,6)              1.12003308E-02
     8      (1,12,7)              1.04344014E-02
     9      (2,11,7)              0.93445983    
     10     (1,11,9)              2.63027415E-03
     11     (1,12,8)              1.00524472E-02
     12     (2,11,8)              0.91144463    
     13     (1,10,3)             -9.79035109E-04
     14     (1,11,2)             -1.31202784E-03
     15     (2,11,3)             -0.69354883    
     16     (1,10,4)             -1.47095975E-03
     17     (2,11,4)             -0.71603774    
     18     (1,10,5)             -3.54385350E-03
     19     (1,11,6)             -4.52070043E-03
     20     (2,11,5)             -0.74418077    
     21     (1,12,2)             -4.27192725E-03
     22     (2,12,3)             -0.66580744    
     23     (2,12,4)             -0.70206509    
     24     (1,12,6)             -6.14334642E-03
     25     (2,12,5)             -0.73854651    
     26     (1,13,2)             -1.24445027E-03
     27     (2,13,3)             -0.65692439    
     28     (2,13,4)             -0.70161622    
     29     (1,13,6)             -6.62940629E-03
     30     (2,13,5)             -0.74198229    
     31     (1,14,2)             -4.47086340E-03
     32     (1,15,3)              0.0000000     
     33     (2,14,3)             -0.67477372    
     34     (1,15,4)              0.0000000     
     35     (2,14,4)             -0.71189657    
     36     (1,14,6)             -5.20009667E-03
     37     (1,15,5)              0.0000000     
     38     (2,14,5)             -0.74933620    
 -----------------------------------------------




 SFR-1 PACKAGE - SUMMARY OF FLOWS FOR EACH CONTROL VOLUME   PERIOD     18   STEP       15
 --------------------------------------------------------------------------------------------------------------------------------------------------------------------------------------------------------
                                                                                                                                                                                               PERCENT   
   NUMBER   CELLID                  INFLOW      OUTFLOW        GWF        RAINFALL   EVAPORATION     RUNOFF     EXT INFLOW  EXT OUTFLOW    STORAGE      FROM MVR      TO MVR      IN - OUT    DIFFERENCE 
 --------------------------------------------------------------------------------------------------------------------------------------------------------------------------------------------------------
     1      (1,1,1)               0.0000      -24.771      -0.22868      0.0000       0.0000       0.0000       25.000       0.0000       0.0000       0.0000       0.0000       0.0000       0.0000     
     2      (1,2,2)               24.771      -24.416      -0.35500      0.0000       0.0000       0.0000       0.0000       0.0000       0.0000       0.0000       0.0000       0.0000       0.0000     
     3      (1,3,3)               24.416      -24.113      -0.30357      0.0000       0.0000       0.0000       0.0000       0.0000       0.0000       0.0000       0.0000       0.0000       0.0000     
     4      (1,3,4)               24.113      -23.833      -0.28022      0.0000       0.0000       0.0000       0.0000       0.0000       0.0000       0.0000       0.0000       0.0000       0.0000     
     5      (1,4,5)               13.833      -13.533      -0.29961      0.0000       0.0000       0.0000       0.0000       0.0000       0.0000       0.0000       0.0000       0.0000       0.0000     
     6      (1,5,6)               13.533      -13.303      -0.22988      0.0000       0.0000       0.0000       0.0000       0.0000       0.0000       0.0000       0.0000       0.0000       0.0000     
     7      (1,6,6)               13.303      -13.074      -0.22937      0.0000       0.0000       0.0000       0.0000       0.0000       0.0000       0.0000       0.0000       0.0000       0.0000     
     8      (1,7,6)               13.074      -12.845      -0.22885      0.0000       0.0000       0.0000       0.0000       0.0000       0.0000       0.0000       0.0000       0.0000       0.0000     
     9      (1,8,6)               12.845      -12.616      -0.22833      0.0000       0.0000       0.0000       0.0000       0.0000       0.0000       0.0000       0.0000       0.0000       0.0000     
     10     (1,3,5)               10.000      -9.9788      -2.12214E-02  0.0000       0.0000       0.0000       0.0000       0.0000       0.0000       0.0000       0.0000       0.0000       0.0000     
     11     (1,3,6)               9.9788      -9.9589      -1.99133E-02  0.0000       0.0000       0.0000       0.0000       0.0000       0.0000       0.0000       0.0000       0.0000       0.0000     
     12     (1,3,7)               9.9589      -9.9421      -1.67956E-02  0.0000       0.0000       0.0000       0.0000       0.0000       0.0000       0.0000       0.0000       0.0000       0.0000     
     13     (1,4,8)               9.9421      -9.9213      -2.07205E-02  0.0000       0.0000       0.0000       0.0000       0.0000       0.0000       0.0000       0.0000       0.0000       0.0000     
     14     (1,5,8)               9.9213      -9.9056      -1.57906E-02  0.0000       0.0000       0.0000       0.0000       0.0000       0.0000       0.0000       0.0000       0.0000       0.0000     
     15     (1,6,8)               9.9056      -9.8996      -5.93648E-03  0.0000       0.0000       0.0000       0.0000       0.0000       0.0000       0.0000       0.0000       0.0000       0.0000     
     16     (1,5,10)              0.0000      -9.9091      -9.09198E-02  0.0000       0.0000       0.0000       10.000       0.0000       0.0000       0.0000       0.0000       0.0000       0.0000     
     17     (1,5,9)               9.9091      -9.7275      -0.18158      0.0000       0.0000       0.0000       0.0000       0.0000       0.0000       0.0000       0.0000       0.0000       0.0000     
     18     (1,6,8)               9.7275      -9.6006      -0.12690      0.0000       0.0000       0.0000       0.0000       0.0000       0.0000       0.0000       0.0000       0.0000       0.0000     
     19     (1,6,8)               19.500      -19.329      -0.17138      0.0000       0.0000       0.0000       0.0000       0.0000       0.0000       0.0000       0.0000       0.0000       0.0000     
     20     (1,7,7)               19.329      -19.115      -0.21385      0.0000       0.0000       0.0000       0.0000       0.0000       0.0000       0.0000       0.0000       0.0000       0.0000     
     21     (1,8,7)               19.115      -18.966      -0.14944      0.0000       0.0000       0.0000       0.0000       0.0000       0.0000       0.0000       0.0000       0.0000       0.0000     
     22     (1,8,6)               18.966      -18.859      -0.10661      0.0000       0.0000       0.0000       0.0000       0.0000       0.0000       0.0000       0.0000       0.0000       0.0000     
     23     (1,9,6)               31.475       0.0000      -0.24837      0.0000       0.0000       0.0000       0.0000       0.0000       0.0000       0.0000      -31.227       0.0000       0.0000     
     24     (1,12,7)              0.0000      -32.918      -2.55475E-02  0.0000       0.0000       0.0000       0.0000       0.0000       0.0000       32.943       0.0000       0.0000       0.0000     
     25     (1,13,7)              32.918      -32.889      -2.80982E-02  0.0000       0.0000       0.0000       0.0000       0.0000       0.0000       0.0000       0.0000       0.0000       0.0000     
     26     (1,14,9)              0.0000      -147.31      -2.6922       0.0000       0.0000       0.0000       150.00       0.0000       0.0000       0.0000       0.0000       0.0000       0.0000     
     27     (1,13,8)              147.31      -144.63      -2.6825       0.0000       0.0000       0.0000       0.0000       0.0000       0.0000       0.0000       0.0000       0.0000       0.0000     
     28     (1,13,7)              144.63      -142.03      -2.5977       0.0000       0.0000       0.0000       0.0000       0.0000       0.0000       0.0000       0.0000       0.0000       0.0000     
     29     (1,13,6)              174.92       0.0000       2.2846       0.0000       0.0000       0.0000       0.0000      -1.72271E-08  0.0000       0.0000      -177.20       0.0000       0.0000     
     30     (1,13,2)              0.0000      -192.64       3.3660       0.0000       0.0000       0.0000       0.0000       0.0000       0.0000       189.27       0.0000       0.0000       0.0000     
     31     (1,13,1)              192.64       0.0000       1.3164       0.0000       0.0000       0.0000       0.0000      -201.44       0.0000       7.4823       0.0000       0.0000       0.0000     
 --------------------------------------------------------------------------------------------------------------------------------------------------------------------------------------------------------



 LAK-1 PACKAGE - SUMMARY OF FLOWS FOR EACH CONTROL VOLUME   PERIOD     18   STEP       15
 -----------------------------------------------------------------------------------------------------------------------------------------------------------------------------------
                                                                                                                                                                          PERCENT   
   NUMBER       GWF        RAINFALL   EVAPORATION     RUNOFF     EXT INFLOW   WITHDRAWAL  EXT OUTFLOW    STORAGE      CONSTANT     FROM MVR      TO MVR      IN - OUT    DIFFERENCE 
 -----------------------------------------------------------------------------------------------------------------------------------------------------------------------------------
     1      -3.7576       5.0000      -1.0000       1.5000       0.0000       0.0000       0.0000      -2.63192E-02  0.0000       31.227      -32.943       1.25758E-07  3.33336E-07
     2       8.5365       3.6000      -3.3000       3.0000       0.0000      -0.12000     -5.17321E-07 -0.30625      0.0000       177.20      -188.61       5.96196E-07  3.09973E-07
 -----------------------------------------------------------------------------------------------------------------------------------------------------------------------------------



 WATER MOVER PACKAGE (MVR) FLOW RATES   PERIOD     18   STEP       15
 --------------------------------------------------------------------------------------------------------------------------
                                               PROVIDER  AVAILABLE   PROVIDED                                     RECEIVER 
   NUMBER           PROVIDER LOCATION             ID        RATE       RATE            RECEIVER LOCATION             ID    
 --------------------------------------------------------------------------------------------------------------------------
     1                  E13/SFR-1                 23      31.2       31.2                  E13/LAK-1                 1     
     2                  E13/LAK-1                 1       32.9       32.9                  E13/SFR-1                 24    
     3                  E13/SFR-1                 29      177.       177.                  E13/LAK-1                 2     
     4                  E13/LAK-1                 2       189.       189.                  E13/SFR-1                 30    
     5                  E13/UZF-1                 1       0.00       0.00                  E13/SFR-1                 1     
     6                  E13/UZF-1                 2       0.00       0.00                  E13/SFR-1                 2     
     7                  E13/UZF-1                 3       0.00       0.00                  E13/SFR-1                 2     
     8                  E13/UZF-1                 4       0.00       0.00                  E13/SFR-1                 2     
     9                  E13/UZF-1                 5       0.00       0.00                  E13/SFR-1                 3     
     10                 E13/UZF-1                 6       0.00       0.00                  E13/SFR-1                 11    
     11                 E13/UZF-1                 7       0.00       0.00                  E13/SFR-1                 12    
     12                 E13/UZF-1                 8       0.00       0.00                  E13/SFR-1                 12    
     13                 E13/UZF-1                 9       0.00       0.00                  E13/SFR-1                 2     
     14                 E13/UZF-1                 10      0.00       0.00                  E13/SFR-1                 3     
     15                 E13/UZF-1                 11      0.00       0.00                  E13/SFR-1                 4     
     16                 E13/UZF-1                 12      0.00       0.00                  E13/SFR-1                 10    
     17                 E13/UZF-1                 13      0.00       0.00                  E13/SFR-1                 11    
     18                 E13/UZF-1                 14      0.00       0.00                  E13/SFR-1                 12    
     19                 E13/UZF-1                 15      0.00       0.00                  E13/SFR-1                 13    
     20                 E13/UZF-1                 16      0.00       0.00                  E13/LAK-1                 2     
     21                 E13/UZF-1                 17      0.00       0.00                  E13/LAK-1                 2     
     22                 E13/UZF-1                 18      0.00       0.00                  E13/SFR-1                 3     
     23                 E13/UZF-1                 19      0.00       0.00                  E13/SFR-1                 4     
     24                 E13/UZF-1                 20      0.00       0.00                  E13/SFR-1                 5     
     25                 E13/UZF-1                 21      0.00       0.00                  E13/SFR-1                 6     
     26                 E13/UZF-1                 22      0.00       0.00                  E13/SFR-1                 6     
     27                 E13/UZF-1                 23      0.00       0.00                  E13/SFR-1                 13    
     28                 E13/UZF-1                 24      0.00       0.00                  E13/SFR-1                 17    
     29                 E13/UZF-1                 25      0.00       0.00                  E13/LAK-1                 2     
     30                 E13/UZF-1                 26      0.00       0.00                  E13/LAK-1                 2     
     31                 E13/UZF-1                 27      0.00       0.00                  E13/LAK-1                 2     
     32                 E13/UZF-1                 28      0.00       0.00                  E13/LAK-1                 2     
     33                 E13/UZF-1                 29      0.00       0.00                  E13/SFR-1                 5     
     34                 E13/UZF-1                 30      0.00       0.00                  E13/SFR-1                 6     
     35                 E13/UZF-1                 31      0.00       0.00                  E13/SFR-1                 6     
     36                 E13/UZF-1                 32      0.00       0.00                  E13/SFR-1                 14    
     37                 E13/UZF-1                 33      0.00       0.00                  E13/SFR-1                 17    
     38                 E13/UZF-1                 34      0.00       0.00                  E13/SFR-1                 16    
     39                 E13/UZF-1                 35      0.00       0.00                  E13/LAK-1                 2     
     40                 E13/UZF-1                 36      0.00       0.00                  E13/LAK-1                 2     
     41                 E13/UZF-1                 37      0.00       0.00                  E13/LAK-1                 2     
     42                 E13/UZF-1                 38      0.00       0.00                  E13/LAK-1                 2     
     43                 E13/UZF-1                 39      0.00       0.00                  E13/LAK-1                 2     
     44                 E13/UZF-1                 40      0.00       0.00                  E13/SFR-1                 7     
     45                 E13/UZF-1                 41      0.00       0.00                  E13/SFR-1                 7     
     46                 E13/UZF-1                 42      0.00       0.00                  E13/SFR-1                 19    
     47                 E13/UZF-1                 43      0.00       0.00                  E13/SFR-1                 17    
     48                 E13/UZF-1                 44      0.00       0.00                  E13/SFR-1                 16    
     49                 E13/UZF-1                 45      0.00       0.00                  E13/LAK-1                 2     
     50                 E13/UZF-1                 46      0.00       0.00                  E13/LAK-1                 2     
     51                 E13/UZF-1                 47      0.00       0.00                  E13/LAK-1                 2     
     52                 E13/UZF-1                 48      0.00       0.00                  E13/LAK-1                 2     
     53                 E13/UZF-1                 49      0.00       0.00                  E13/LAK-1                 2     
     54                 E13/UZF-1                 50      0.00       0.00                  E13/SFR-1                 8     
     55                 E13/UZF-1                 51      0.00       0.00                  E13/SFR-1                 20    
     56                 E13/UZF-1                 52      0.00       0.00                  E13/SFR-1                 20    
     57                 E13/UZF-1                 53      0.00       0.00                  E13/SFR-1                 20    
     58                 E13/UZF-1                 54      0.00       0.00                  E13/LAK-1                 2     
     59                 E13/UZF-1                 55      0.00       0.00                  E13/LAK-1                 2     
     60                 E13/UZF-1                 56      0.00       0.00                  E13/LAK-1                 2     
     61                 E13/UZF-1                 57      0.00       0.00                  E13/LAK-1                 2     
     62                 E13/UZF-1                 58      0.00       0.00                  E13/SFR-1                 9     
     63                 E13/UZF-1                 59      0.00       0.00                  E13/SFR-1                 21    
     64                 E13/UZF-1                 60      0.00       0.00                  E13/SFR-1                 21    
     65                 E13/UZF-1                 61      0.00       0.00                  E13/SFR-1                 21    
     66                 E13/UZF-1                 62      0.00       0.00                  E13/LAK-1                 2     
     67                 E13/UZF-1                 63      0.00       0.00                  E13/LAK-1                 2     
     68                 E13/UZF-1                 64      0.00       0.00                  E13/LAK-1                 2     
     69                 E13/UZF-1                 65      0.00       0.00                  E13/LAK-1                 2     
     70                 E13/UZF-1                 66      0.00       0.00                  E13/SFR-1                 23    
     71                 E13/UZF-1                 67      0.00       0.00                  E13/LAK-1                 1     
     72                 E13/UZF-1                 68      0.00       0.00                  E13/LAK-1                 1     
     73                 E13/UZF-1                 69      0.00       0.00                  E13/LAK-1                 1     
     74                 E13/UZF-1                 70      0.00       0.00                  E13/LAK-1                 2     
     75                 E13/UZF-1                 71      0.00       0.00                  E13/LAK-1                 2     
     76                 E13/UZF-1                 72      0.00       0.00                  E13/LAK-1                 2     
     77                 E13/UZF-1                 73      0.00       0.00                  E13/LAK-1                 2     
     78                 E13/UZF-1                 74      0.00       0.00                  E13/LAK-1                 1     
     79                 E13/UZF-1                 75      0.00       0.00                  E13/LAK-1                 1     
     80                 E13/UZF-1                 76      0.00       0.00                  E13/LAK-1                 1     
     81                 E13/UZF-1                 77      0.00       0.00                  E13/LAK-1                 2     
     82                 E13/UZF-1                 78      0.00       0.00                  E13/SFR-1                 9     
     83                 E13/UZF-1                 79      0.00       0.00                  E13/LAK-1                 1     
     84                 E13/UZF-1                 80      0.00       0.00                  E13/SFR-1                 31    
     85                 E13/UZF-1                 81      0.00       0.00                  E13/SFR-1                 30    
     86                 E13/UZF-1                 82      0.00       0.00                  E13/SFR-1                 9     
     87                 E13/UZF-1                 83      0.00       0.00                  E13/SFR-1                 24    
     88                 E13/UZF-1                 84      0.00       0.00                  E13/LAK-1                 1     
     89                 E13/UZF-1                 85      0.00       0.00                  E13/LAK-1                 1     
     90                 E13/UZF-1                 86      7.48       7.48                  E13/SFR-1                 31    
     91                 E13/UZF-1                 87      0.661      0.661                 E13/SFR-1                 30    
     92                 E13/UZF-1                 88      0.00       0.00                  E13/SFR-1                 29    
     93                 E13/UZF-1                 89      0.00       0.00                  E13/SFR-1                 28    
     94                 E13/UZF-1                 90      0.00       0.00                  E13/SFR-1                 27    
     95                 E13/UZF-1                 91      0.00       0.00                  E13/SFR-1                 26    
     96                 E13/UZF-1                 92      0.00       0.00                  E13/SFR-1                 30    
     97                 E13/UZF-1                 93      0.00       0.00                  E13/LAK-1                 2     
     98                 E13/UZF-1                 94      0.00       0.00                  E13/SFR-1                 28    
     99                 E13/UZF-1                 95      0.00       0.00                  E13/SFR-1                 27    
    100                 E13/UZF-1                 96      0.00       0.00                  E13/SFR-1                 26    
    101                 E13/UZF-1                 97      0.00       0.00                  E13/LAK-1                 2     
    102                 E13/UZF-1                 98      0.00       0.00                  E13/LAK-1                 2     
    103                 E13/UZF-1                 99      0.00       0.00                  E13/LAK-1                 2     
    104                 E13/UZF-1                100      0.00       0.00                  E13/LAK-1                 2     
    105                 E13/WEL-1                 1       0.00       0.00                  E13/UZF-1                 38    
    106                 E13/WEL-1                 2       0.00       0.00                  E13/UZF-1                 39    
    107                 E13/WEL-1                 3       0.00       0.00                  E13/UZF-1                 48    
    108                 E13/WEL-1                 4       0.00       0.00                  E13/UZF-1                 49    
    109                 E13/WEL-1                 5       0.00       0.00                  E13/UZF-1                 56    
    110                 E13/WEL-1                 6       0.00       0.00                  E13/UZF-1                 57    
    111                 E13/WEL-1                 7       0.00       0.00                  E13/UZF-1                 64    
    112                 E13/WEL-1                 8       0.00       0.00                  E13/UZF-1                 65    
    113                 E13/WEL-1                 9       0.00       0.00                  E13/UZF-1                 72    
    114                 E13/WEL-1                 10      0.00       0.00                  E13/UZF-1                 73    
 --------------------------------------------------------------------------------------------------------------------------



 SFR PACKAGE (SFR-1) STAGES FOR EACH CONTROL VOLUME   PERIOD     18   STEP       15
 ------------------------------------------------------------------------------------------------------------------------------------------------------
                                                                                                                               STREAMBED    STREAMBED  
 NAME                                       NUMBER   CELLID                  STAGE        DEPTH        WIDTH       GWF HEAD   CONDUCTANCE    GRADIENT  
 ------------------------------------------------------------------------------------------------------------------------------------------------------
 ALLREACHES                                   1      (1,1,1)               1094.3       1.2349       12.000       1020.4       5.40000E-02  1.4116     
 ALLREACHES                                   2      (1,2,2)               1089.3       1.2262       12.000       1021.0       8.40000E-02  1.4087     
 ALLREACHES                                   3      (1,3,3)               1083.6       1.2163       12.000       1021.0       7.20000E-02  1.4054     
 ALLREACHES                                   4      (1,3,4)               1078.6       1.2075       12.000       1021.1       6.66000E-02  1.4025     
 ALLREACHES                                   5      (1,4,5)               1072.8       0.84113      12.000       1021.1       7.80000E-02  1.2804     
 ALLREACHES                                   6      (1,5,6)               1067.3       0.83133      12.000       1020.6       6.00000E-02  1.2771     
 ALLREACHES                                   7      (1,6,6)               1062.6       0.82276      12.000       1019.6       6.00000E-02  1.2743     
 ALLREACHES                                   8      (1,7,6)               1057.9       0.81415      12.000       1019.4       6.00000E-02  1.2714     
 ALLREACHES                                   9      (1,8,6)               1053.2       0.80551      12.000       1019.3       6.00000E-02  1.2685     
 ALLREACHES                                   10     (1,3,5)               1074.6       0.93630      9.6364       1020.6       7.22727E-03  1.4681     
 ALLREACHES                                   11     (1,3,6)               1071.9       0.98022      8.9091       1020.7       6.68182E-03  1.4901     
 ALLREACHES                                   12     (1,3,7)               1069.3       1.0277       8.2182       1020.5       5.54727E-03  1.5139     
 ALLREACHES                                   13     (1,4,8)               1066.5       1.0884       7.4545       1020.0       6.70909E-03  1.5442     
 ALLREACHES                                   14     (1,5,8)               1063.6       1.1639       6.6545       1019.2       4.99091E-03  1.5819     
 ALLREACHES                                   15     (1,6,8)               1061.8       1.2200       6.1455       1019.9       1.84364E-03  1.6100     
 ALLREACHES                                   16     (1,5,10)              1078.4       0.63679      10.000       1020.2       2.50000E-02  1.2123     
 ALLREACHES                                   17     (1,5,9)               1071.5       0.63155      10.000       1020.4       5.00000E-02  1.2105     
 ALLREACHES                                   18     (1,6,8)               1063.8       0.62558      10.000       1019.9       3.50000E-02  1.2085     
 ALLREACHES                                   19     (1,6,8)               1060.0       1.2846       10.000       1019.9       4.00000E-02  1.4282     
 ALLREACHES                                   20     (1,7,7)               1056.9       1.2770       10.000       1019.6       5.00000E-02  1.4257     
 ALLREACHES                                   21     (1,8,7)               1054.1       1.2697       10.000       1019.4       3.50000E-02  1.4232     
 ALLREACHES                                   22     (1,8,6)               1052.1       1.2646       10.000       1019.3       2.50000E-02  1.4215     
 ALLREACHES                                   23     (1,9,6)               1046.6       1.1396       12.000       1018.9       6.00000E-02  1.3799     
 ALLREACHES                                   24     (1,12,7)              1037.7       1.2579       12.000       1020.4       6.00000E-03  1.4193     
 ALLREACHES                                   25     (1,13,7)              1030.2       1.2573       12.000       1023.8       6.60000E-03  1.4191     
 ALLREACHES                                   26     (1,14,9)              1034.8       1.4870       60.000       1027.8       0.60000      1.4957     
 ALLREACHES                                   27     (1,13,8)              1031.5       1.4708       60.000       1025.1       0.60000      1.4903     
 ALLREACHES                                   28     (1,13,7)              1028.1       1.4548       60.000       1023.8       0.60000      1.4431     
 ALLREACHES                                   29     (1,13,6)              1013.9       0.91035      60.000       1017.7       0.60000     -1.2692     
 ALLREACHES                                   30     (1,13,2)              998.31       1.4311       60.000       1003.9       0.60000     -1.8700     
 ALLREACHES                                   31     (1,13,1)              993.35       1.4748       60.000       997.01       0.36000     -1.2189     
 ------------------------------------------------------------------------------------------------------------------------------------------------------



 LAK PACKAGE (LAK-1) STAGES FOR EACH CONTROL VOLUME   PERIOD     18   STEP       15
 --------------------------------------------------------------
   NUMBER      STAGE     SURFACE AREA WETTED AREA     VOLUME   
 --------------------------------------------------------------
     1       1041.3       1.00000E+08  1.01383E+08  4.27586E+09
     2       1001.4       3.00000E+08  3.01508E+08  5.30116E+09
 --------------------------------------------------------------



 HEAD WILL BE SAVED ON UNIT 1026 AT END OF TIME STEP   15, STRESS PERIOD   18


  SFR-1 BUDGET FOR ENTIRE MODEL AT END OF TIME STEP   15, STRESS PERIOD  18
  ------------------------------------------------------------------------------

     CUMULATIVE SFR-1      L**3       RATES FOR THIS TIME STEP      L**3/T
     ------------------                 ------------------------

           IN:                                      IN:
           ---                                      ---
                 GWF =   292532571.0209                   GWF =           6.9670
            RAINFALL =           0.0000              RAINFALL =           0.0000
         EVAPORATION =           0.0000           EVAPORATION =           0.0000
              RUNOFF =           0.0000                RUNOFF =           0.0000
          EXT-INFLOW =  8751240000.0000            EXT-INFLOW =         185.0000
         EXT-OUTFLOW =       1.7046E-02           EXT-OUTFLOW =           0.0000
             STORAGE =           0.0000               STORAGE =           0.0000
            FROM-MVR = 10712344845.8987              FROM-MVR =         229.6986
              TO-MVR =           0.0000                TO-MVR =           0.0000

            TOTAL IN = 19756117416.9366              TOTAL IN =         421.6657

          OUT:                                     OUT:
          ----                                     ----
                 GWF =   561661834.7529                   GWF =          11.7989
            RAINFALL =           0.0000              RAINFALL =           0.0000
         EVAPORATION =           0.0000           EVAPORATION =           0.0000
              RUNOFF =           0.0000                RUNOFF =           0.0000
          EXT-INFLOW =           0.0000            EXT-INFLOW =           0.0000
         EXT-OUTFLOW =  9372978288.5591           EXT-OUTFLOW =         201.4379
             STORAGE =           0.0000               STORAGE =           0.0000
            FROM-MVR =           0.0000              FROM-MVR =           0.0000
              TO-MVR =  9821477293.6247                TO-MVR =         208.4288

           TOTAL OUT = 19756117416.9366             TOTAL OUT =         421.6657

            IN - OUT =       3.8147E-06              IN - OUT =           0.0000

 PERCENT DISCREPANCY =           0.00     PERCENT DISCREPANCY =           0.00



  LAK-1 BUDGET FOR ENTIRE MODEL AT END OF TIME STEP   15, STRESS PERIOD  18
  ------------------------------------------------------------------------------

     CUMULATIVE LAK-1      L**3       RATES FOR THIS TIME STEP      L**3/T
     ------------------                 ------------------------

           IN:                                      IN:
           ---                                      ---
                 GWF =   370869518.7795                   GWF =           8.5365
            RAINFALL =   406814400.0000              RAINFALL =           8.6000
         EVAPORATION =           0.0000           EVAPORATION =           0.0000
              RUNOFF =   212868000.0000                RUNOFF =           4.5000
          EXT-INFLOW =           0.0000            EXT-INFLOW =           0.0000
          WITHDRAWAL =           0.0000            WITHDRAWAL =           0.0000
         EXT-OUTFLOW =           1.4865           EXT-OUTFLOW =           0.0000
             STORAGE =      334885.2259               STORAGE =           0.0000
            CONSTANT =           0.0000              CONSTANT =           0.0000
            FROM-MVR =  9821477293.6247              FROM-MVR =         208.4288
              TO-MVR =           0.0000                TO-MVR =           0.0000

            TOTAL IN = 10812364099.1166              TOTAL IN =         230.0653

          OUT:                                     OUT:
          ----                                     ----
                 GWF =   188235399.7808                   GWF =           3.7576
            RAINFALL =           0.0000              RAINFALL =           0.0000
         EVAPORATION =   203407200.0000           EVAPORATION =           4.3000
              RUNOFF =           0.0000                RUNOFF =           0.0000
          EXT-INFLOW =           0.0000            EXT-INFLOW =           0.0000
          WITHDRAWAL =     5676480.0000            WITHDRAWAL =           0.1200
         EXT-OUTFLOW =           3.9381           EXT-OUTFLOW =       5.1732E-07
             STORAGE =     4073170.7693               STORAGE =           0.3326
            CONSTANT =           0.0000              CONSTANT =           0.0000
            FROM-MVR =           0.0000              FROM-MVR =           0.0000
              TO-MVR = 10410971847.0184                TO-MVR =         221.5551

           TOTAL OUT = 10812364101.5066             TOTAL OUT =         230.0653

            IN - OUT =          -2.3900              IN - OUT =       7.2195E-07

 PERCENT DISCREPANCY =          -0.00     PERCENT DISCREPANCY =           0.00



  UZF-1 BUDGET FOR ENTIRE MODEL AT END OF TIME STEP   15, STRESS PERIOD  18
  ------------------------------------------------------------------------------

     CUMULATIVE UZF-1      L**3       RATES FOR THIS TIME STEP      L**3/T
     ------------------                 ------------------------

           IN:                                      IN:
           ---                                      ---
                 GWF =           0.0000                   GWF =           0.0000
        INFILTRATION =  5743140271.2000          INFILTRATION =         306.0000
             REJ-INF =           0.0000               REJ-INF =           0.0000
                UZET =           0.0000                  UZET =           0.0000
             STORAGE =  1621396602.1321               STORAGE =           2.7515
            FROM-MVR =   201042000.0000              FROM-MVR =           0.0000
      REJ-INF-TO-MVR =           0.0000        REJ-INF-TO-MVR =           0.0000

            TOTAL IN =  7565578873.3321              TOTAL IN =         308.7515

          OUT:                                     OUT:
          ----                                     ----
                 GWF =  1209384450.4292                   GWF =          49.1101
        INFILTRATION =           0.0000          INFILTRATION =           0.0000
             REJ-INF =          64.4966               REJ-INF =       1.5594E-07
                UZET =   991918334.2319                  UZET =          21.9622
             STORAGE =  5343172253.0326               STORAGE =         236.0180
            FROM-MVR =           0.0000              FROM-MVR =           0.0000
      REJ-INF-TO-MVR =    21103692.2888        REJ-INF-TO-MVR =           1.6612

           TOTAL OUT =  7565578794.4791             TOTAL OUT =         308.7515

            IN - OUT =          78.8530              IN - OUT =       8.9089E-07

 PERCENT DISCREPANCY =           0.00     PERCENT DISCREPANCY =           0.00



  WATER MOVER BUDGET FOR ENTIRE MODEL AT END OF TIME STEP   15, STRESS PERIOD  18
  ------------------------------------------------------------------------------

     CUMULATIVE WATER MOVER      L**3       RATES FOR THIS TIME STEP      L**3/T
     ------------------                 ------------------------

           IN:                                      IN:
           ---                                      ---
               UZF-1 =   301372998.8803                 UZF-1 =           8.1435
               SFR-1 =  9821477293.6247                 SFR-1 =         208.4288
               LAK-1 = 10410971847.0184                 LAK-1 =         221.5551
               WEL-1 =   201042000.0000                 WEL-1 =           0.0000

            TOTAL IN = 20734864139.5233              TOTAL IN =         438.1274

          OUT:                                     OUT:
          ----                                     ----
               UZF-1 =   201042000.0000                 UZF-1 =           0.0000
               SFR-1 = 10712344845.8987                 SFR-1 =         229.6986
               LAK-1 =  9821477293.6247                 LAK-1 =         208.4288
               WEL-1 =           0.0000                 WEL-1 =           0.0000

           TOTAL OUT = 20734864139.5233             TOTAL OUT =         438.1274

            IN - OUT =       7.6294E-06              IN - OUT =           0.0000

 PERCENT DISCREPANCY =           0.00     PERCENT DISCREPANCY =           0.00



  VOLUME BUDGET FOR ENTIRE MODEL AT END OF TIME STEP   15, STRESS PERIOD  18
  ---------------------------------------------------------------------------------------------------

     CUMULATIVE VOLUME      L**3       RATES FOR THIS TIME STEP      L**3/T          PACKAGE NAME    
     ------------------                 ------------------------                     ----------------

           IN:                                      IN:
           ---                                      ---
              STO-SS =      884443.8897                STO-SS =       1.0902E-06     STORAGE                          
              STO-SY =   270279437.6788                STO-SY =       3.0252E-04     STORAGE                          
                 WEL =           0.0000                   WEL =           0.0000     WEL-1                            
          WEL-TO-MVR =           0.0000            WEL-TO-MVR =           0.0000     WEL-1                            
                 GHB =    32776339.5176                   GHB =           0.6551     GHB_0                            
                 SFR =   561661834.2559                   SFR =          11.7989     SFR-1                            
                 LAK =   188235399.7808                   LAK =           3.7576     LAK-1                            
           UZF-GWRCH =  1209384450.4292             UZF-GWRCH =          49.1101     UZF-1                            
             UZF-GWD =           0.0000               UZF-GWD =           0.0000     UZF-1                            
      UZF-GWD TO-MVR =           0.0000        UZF-GWD TO-MVR =           0.0000     UZF-1                            
            UZF-GWET =           0.0000              UZF-GWET =           0.0000     UZF-1                            

            TOTAL IN =  2263221905.5520              TOTAL IN =          65.3220

          OUT:                                     OUT:
          ----                                     ----
              STO-SS =     4941080.2297                STO-SS =           0.1966     STORAGE                          
              STO-SY =  1070311903.4193                STO-SY =          42.1764     STORAGE                          
                 WEL =           0.0000                   WEL =           0.0000     WEL-1                            
          WEL-TO-MVR =   201042000.0000            WEL-TO-MVR =           0.0000     WEL-1                            
                 GHB =    16186240.9912                   GHB =           0.3422     GHB_0                            
                 SFR =   292532892.9315                   SFR =           6.9670     SFR-1                            
                 LAK =   370869518.7795                   LAK =           8.5365     LAK-1                            
           UZF-GWRCH =           0.0000             UZF-GWRCH =           0.0000     UZF-1                            
             UZF-GWD =         116.4014               UZF-GWD =       1.1865E-07     UZF-1                            
      UZF-GWD TO-MVR =   280269306.5915        UZF-GWD TO-MVR =           6.4823     UZF-1                            
            UZF-GWET =    27053921.6382              UZF-GWET =           0.6197     UZF-1                            

           TOTAL OUT =  2263206980.9822             TOTAL OUT =          65.3208

            IN - OUT =       14924.5698              IN - OUT =       1.2181E-03

 PERCENT DISCREPANCY =           0.00     PERCENT DISCREPANCY =           0.00




         TIME SUMMARY AT END OF TIME STEP   15 IN STRESS PERIOD   18
                    SECONDS     MINUTES      HOURS       DAYS        YEARS
                    -----------------------------------------------------------
   TIME STEP LENGTH 1.75200E+05  2920.0      48.667      2.0278     5.55175E-03
 STRESS PERIOD TIME 2.62800E+06  43800.      730.00      30.417     8.32763E-02
         TOTAL TIME 4.73040E+07 7.88400E+05  13140.      547.50      1.4990    


end timestep


start timestep kper="19" kstp="1" mode="normal"


 OUTPUT CONTROL FOR STRESS PERIOD 19 IS REPEATED USING SETTINGS FROM A PREVIOUS STRESS PERIOD.


 STRESS PERIOD 19 IS TRANSIENT


 REUSING MVRS FROM LAST STRESS PERIOD

 REUSING SFRS FROM LAST STRESS PERIOD

 REUSING LAKS FROM LAST STRESS PERIOD

end timestep


start timestep kper="19" kstp="2" mode="normal"


end timestep


start timestep kper="19" kstp="3" mode="normal"


end timestep


start timestep kper="19" kstp="4" mode="normal"


end timestep


start timestep kper="19" kstp="5" mode="normal"


end timestep


start timestep kper="19" kstp="6" mode="normal"


end timestep


start timestep kper="19" kstp="7" mode="normal"


end timestep


start timestep kper="19" kstp="8" mode="normal"


end timestep


start timestep kper="19" kstp="9" mode="normal"


end timestep


start timestep kper="19" kstp="10" mode="normal"


end timestep


start timestep kper="19" kstp="11" mode="normal"


end timestep


start timestep kper="19" kstp="12" mode="normal"


end timestep


start timestep kper="19" kstp="13" mode="normal"


end timestep


start timestep kper="19" kstp="14" mode="normal"


end timestep


start timestep kper="19" kstp="15" mode="normal"

 UBDSV1 SAVING           STO-SS ON UNIT   1025 AT TIME STEP     15, STRESS PERIOD     19
 UBDSV1 SAVING           STO-SY ON UNIT   1025 AT TIME STEP     15, STRESS PERIOD     19
 UBDSV1 SAVING     FLOW-JA-FACE ON UNIT   1025 AT TIME STEP     15, STRESS PERIOD     19
 UBDSV06 SAVING       DATA-SPDIS IN MODEL E13              PACKAGE NPF             CONNECTED TO MODEL E13              PACKAGE NPF              ON UNIT   1025 AT TIME STEP     15, STRESS PERIOD     19
 UBDSV06 SAVING              WEL IN MODEL E13              PACKAGE E13             CONNECTED TO MODEL E13              PACKAGE WEL-1            ON UNIT   1025 AT TIME STEP     15, STRESS PERIOD     19
 UBDSV06 SAVING       WEL-TO-MVR IN MODEL E13              PACKAGE E13             CONNECTED TO MODEL E13              PACKAGE WEL-1            ON UNIT   1025 AT TIME STEP     15, STRESS PERIOD     19
 UBDSV06 SAVING              GHB IN MODEL E13              PACKAGE E13             CONNECTED TO MODEL E13              PACKAGE GHB_0            ON UNIT   1025 AT TIME STEP     15, STRESS PERIOD     19
 UBDSV06 SAVING              SFR IN MODEL E13              PACKAGE E13             CONNECTED TO MODEL E13              PACKAGE SFR-1            ON UNIT   1025 AT TIME STEP     15, STRESS PERIOD     19
 UBDSV06 SAVING              LAK IN MODEL E13              PACKAGE E13             CONNECTED TO MODEL E13              PACKAGE LAK-1            ON UNIT   1025 AT TIME STEP     15, STRESS PERIOD     19
 UBDSV06 SAVING        UZF-GWRCH IN MODEL E13              PACKAGE E13             CONNECTED TO MODEL E13              PACKAGE UZF-1            ON UNIT   1025 AT TIME STEP     15, STRESS PERIOD     19
 UBDSV06 SAVING          UZF-GWD IN MODEL E13              PACKAGE E13             CONNECTED TO MODEL E13              PACKAGE UZF-1            ON UNIT   1025 AT TIME STEP     15, STRESS PERIOD     19
 UBDSV06 SAVING   UZF-GWD TO-MVR IN MODEL E13              PACKAGE E13             CONNECTED TO MODEL E13              PACKAGE UZF-1            ON UNIT   1025 AT TIME STEP     15, STRESS PERIOD     19
 UBDSV06 SAVING         UZF-GWET IN MODEL E13              PACKAGE E13             CONNECTED TO MODEL E13              PACKAGE UZF-1            ON UNIT   1025 AT TIME STEP     15, STRESS PERIOD     19
 UBDSV06 SAVING     FLOW-JA-FACE IN MODEL E13              PACKAGE SFR-1           CONNECTED TO MODEL E13              PACKAGE SFR-1            ON UNIT   1017 AT TIME STEP     15, STRESS PERIOD     19
 UBDSV06 SAVING              GWF IN MODEL E13              PACKAGE SFR-1           CONNECTED TO MODEL E13              PACKAGE E13              ON UNIT   1017 AT TIME STEP     15, STRESS PERIOD     19
 UBDSV06 SAVING         RAINFALL IN MODEL E13              PACKAGE SFR-1           CONNECTED TO MODEL E13              PACKAGE SFR-1            ON UNIT   1017 AT TIME STEP     15, STRESS PERIOD     19
 UBDSV06 SAVING      EVAPORATION IN MODEL E13              PACKAGE SFR-1           CONNECTED TO MODEL E13              PACKAGE SFR-1            ON UNIT   1017 AT TIME STEP     15, STRESS PERIOD     19
 UBDSV06 SAVING           RUNOFF IN MODEL E13              PACKAGE SFR-1           CONNECTED TO MODEL E13              PACKAGE SFR-1            ON UNIT   1017 AT TIME STEP     15, STRESS PERIOD     19
 UBDSV06 SAVING       EXT-INFLOW IN MODEL E13              PACKAGE SFR-1           CONNECTED TO MODEL E13              PACKAGE SFR-1            ON UNIT   1017 AT TIME STEP     15, STRESS PERIOD     19
 UBDSV06 SAVING      EXT-OUTFLOW IN MODEL E13              PACKAGE SFR-1           CONNECTED TO MODEL E13              PACKAGE SFR-1            ON UNIT   1017 AT TIME STEP     15, STRESS PERIOD     19
 UBDSV06 SAVING          STORAGE IN MODEL E13              PACKAGE SFR-1           CONNECTED TO MODEL E13              PACKAGE SFR-1            ON UNIT   1017 AT TIME STEP     15, STRESS PERIOD     19
 UBDSV06 SAVING         FROM-MVR IN MODEL E13              PACKAGE SFR-1           CONNECTED TO MODEL E13              PACKAGE SFR-1            ON UNIT   1017 AT TIME STEP     15, STRESS PERIOD     19
 UBDSV06 SAVING           TO-MVR IN MODEL E13              PACKAGE SFR-1           CONNECTED TO MODEL E13              PACKAGE SFR-1            ON UNIT   1017 AT TIME STEP     15, STRESS PERIOD     19
 UBDSV06 SAVING              GWF IN MODEL E13              PACKAGE LAK-1           CONNECTED TO MODEL E13              PACKAGE E13              ON UNIT   1019 AT TIME STEP     15, STRESS PERIOD     19
 UBDSV06 SAVING         RAINFALL IN MODEL E13              PACKAGE LAK-1           CONNECTED TO MODEL E13              PACKAGE LAK-1            ON UNIT   1019 AT TIME STEP     15, STRESS PERIOD     19
 UBDSV06 SAVING      EVAPORATION IN MODEL E13              PACKAGE LAK-1           CONNECTED TO MODEL E13              PACKAGE LAK-1            ON UNIT   1019 AT TIME STEP     15, STRESS PERIOD     19
 UBDSV06 SAVING           RUNOFF IN MODEL E13              PACKAGE LAK-1           CONNECTED TO MODEL E13              PACKAGE LAK-1            ON UNIT   1019 AT TIME STEP     15, STRESS PERIOD     19
 UBDSV06 SAVING       EXT-INFLOW IN MODEL E13              PACKAGE LAK-1           CONNECTED TO MODEL E13              PACKAGE LAK-1            ON UNIT   1019 AT TIME STEP     15, STRESS PERIOD     19
 UBDSV06 SAVING       WITHDRAWAL IN MODEL E13              PACKAGE LAK-1           CONNECTED TO MODEL E13              PACKAGE LAK-1            ON UNIT   1019 AT TIME STEP     15, STRESS PERIOD     19
 UBDSV06 SAVING      EXT-OUTFLOW IN MODEL E13              PACKAGE LAK-1           CONNECTED TO MODEL E13              PACKAGE LAK-1            ON UNIT   1019 AT TIME STEP     15, STRESS PERIOD     19
 UBDSV06 SAVING          STORAGE IN MODEL E13              PACKAGE LAK-1           CONNECTED TO MODEL E13              PACKAGE LAK-1            ON UNIT   1019 AT TIME STEP     15, STRESS PERIOD     19
 UBDSV06 SAVING         CONSTANT IN MODEL E13              PACKAGE LAK-1           CONNECTED TO MODEL E13              PACKAGE LAK-1            ON UNIT   1019 AT TIME STEP     15, STRESS PERIOD     19
 UBDSV06 SAVING         FROM-MVR IN MODEL E13              PACKAGE LAK-1           CONNECTED TO MODEL E13              PACKAGE LAK-1            ON UNIT   1019 AT TIME STEP     15, STRESS PERIOD     19
 UBDSV06 SAVING           TO-MVR IN MODEL E13              PACKAGE LAK-1           CONNECTED TO MODEL E13              PACKAGE LAK-1            ON UNIT   1019 AT TIME STEP     15, STRESS PERIOD     19
 UBDSV06 SAVING     FLOW-JA-FACE IN MODEL E13              PACKAGE UZF-1           CONNECTED TO MODEL E13              PACKAGE UZF-1            ON UNIT   1021 AT TIME STEP     15, STRESS PERIOD     19
 UBDSV06 SAVING              GWF IN MODEL E13              PACKAGE UZF-1           CONNECTED TO MODEL E13              PACKAGE E13              ON UNIT   1021 AT TIME STEP     15, STRESS PERIOD     19
 UBDSV06 SAVING     INFILTRATION IN MODEL E13              PACKAGE UZF-1           CONNECTED TO MODEL E13              PACKAGE UZF-1            ON UNIT   1021 AT TIME STEP     15, STRESS PERIOD     19
 UBDSV06 SAVING          REJ-INF IN MODEL E13              PACKAGE UZF-1           CONNECTED TO MODEL E13              PACKAGE UZF-1            ON UNIT   1021 AT TIME STEP     15, STRESS PERIOD     19
 UBDSV06 SAVING             UZET IN MODEL E13              PACKAGE UZF-1           CONNECTED TO MODEL E13              PACKAGE UZF-1            ON UNIT   1021 AT TIME STEP     15, STRESS PERIOD     19
 UBDSV06 SAVING          STORAGE IN MODEL E13              PACKAGE UZF-1           CONNECTED TO MODEL E13              PACKAGE UZF-1            ON UNIT   1021 AT TIME STEP     15, STRESS PERIOD     19
 UBDSV06 SAVING         FROM-MVR IN MODEL E13              PACKAGE UZF-1           CONNECTED TO MODEL E13              PACKAGE UZF-1            ON UNIT   1021 AT TIME STEP     15, STRESS PERIOD     19
 UBDSV06 SAVING   REJ-INF-TO-MVR IN MODEL E13              PACKAGE UZF-1           CONNECTED TO MODEL E13              PACKAGE UZF-1            ON UNIT   1021 AT TIME STEP     15, STRESS PERIOD     19
 UBDSV06 SAVING       MOVER-FLOW IN MODEL E13              PACKAGE UZF-1           CONNECTED TO MODEL E13              PACKAGE UZF-1            ON UNIT   1023 AT TIME STEP     15, STRESS PERIOD     19
 UBDSV06 SAVING       MOVER-FLOW IN MODEL E13              PACKAGE UZF-1           CONNECTED TO MODEL E13              PACKAGE SFR-1            ON UNIT   1023 AT TIME STEP     15, STRESS PERIOD     19
 UBDSV06 SAVING       MOVER-FLOW IN MODEL E13              PACKAGE UZF-1           CONNECTED TO MODEL E13              PACKAGE LAK-1            ON UNIT   1023 AT TIME STEP     15, STRESS PERIOD     19
 UBDSV06 SAVING       MOVER-FLOW IN MODEL E13              PACKAGE UZF-1           CONNECTED TO MODEL E13              PACKAGE WEL-1            ON UNIT   1023 AT TIME STEP     15, STRESS PERIOD     19
 UBDSV06 SAVING       MOVER-FLOW IN MODEL E13              PACKAGE SFR-1           CONNECTED TO MODEL E13              PACKAGE UZF-1            ON UNIT   1023 AT TIME STEP     15, STRESS PERIOD     19
 UBDSV06 SAVING       MOVER-FLOW IN MODEL E13              PACKAGE SFR-1           CONNECTED TO MODEL E13              PACKAGE SFR-1            ON UNIT   1023 AT TIME STEP     15, STRESS PERIOD     19
 UBDSV06 SAVING       MOVER-FLOW IN MODEL E13              PACKAGE SFR-1           CONNECTED TO MODEL E13              PACKAGE LAK-1            ON UNIT   1023 AT TIME STEP     15, STRESS PERIOD     19
 UBDSV06 SAVING       MOVER-FLOW IN MODEL E13              PACKAGE SFR-1           CONNECTED TO MODEL E13              PACKAGE WEL-1            ON UNIT   1023 AT TIME STEP     15, STRESS PERIOD     19
 UBDSV06 SAVING       MOVER-FLOW IN MODEL E13              PACKAGE LAK-1           CONNECTED TO MODEL E13              PACKAGE UZF-1            ON UNIT   1023 AT TIME STEP     15, STRESS PERIOD     19
 UBDSV06 SAVING       MOVER-FLOW IN MODEL E13              PACKAGE LAK-1           CONNECTED TO MODEL E13              PACKAGE SFR-1            ON UNIT   1023 AT TIME STEP     15, STRESS PERIOD     19
 UBDSV06 SAVING       MOVER-FLOW IN MODEL E13              PACKAGE LAK-1           CONNECTED TO MODEL E13              PACKAGE LAK-1            ON UNIT   1023 AT TIME STEP     15, STRESS PERIOD     19
 UBDSV06 SAVING       MOVER-FLOW IN MODEL E13              PACKAGE LAK-1           CONNECTED TO MODEL E13              PACKAGE WEL-1            ON UNIT   1023 AT TIME STEP     15, STRESS PERIOD     19
 UBDSV06 SAVING       MOVER-FLOW IN MODEL E13              PACKAGE WEL-1           CONNECTED TO MODEL E13              PACKAGE UZF-1            ON UNIT   1023 AT TIME STEP     15, STRESS PERIOD     19
 UBDSV06 SAVING       MOVER-FLOW IN MODEL E13              PACKAGE WEL-1           CONNECTED TO MODEL E13              PACKAGE SFR-1            ON UNIT   1023 AT TIME STEP     15, STRESS PERIOD     19
 UBDSV06 SAVING       MOVER-FLOW IN MODEL E13              PACKAGE WEL-1           CONNECTED TO MODEL E13              PACKAGE LAK-1            ON UNIT   1023 AT TIME STEP     15, STRESS PERIOD     19
 UBDSV06 SAVING       MOVER-FLOW IN MODEL E13              PACKAGE WEL-1           CONNECTED TO MODEL E13              PACKAGE WEL-1            ON UNIT   1023 AT TIME STEP     15, STRESS PERIOD     19

 WEL PACKAGE (WEL-1) FLOW RATES   PERIOD     19   STEP       15
 -----------------------------------------------
   NUMBER   CELLID                    RATE      
 -----------------------------------------------
     1      (1,6,4)               0.0000000     
     2      (1,6,5)               0.0000000     
     3      (1,7,4)               0.0000000     
     4      (1,7,5)               0.0000000     
     5      (1,8,4)               0.0000000     
     6      (1,8,5)               0.0000000     
     7      (1,9,4)               0.0000000     
     8      (1,9,5)               0.0000000     
     9      (1,10,4)              0.0000000     
     10     (1,10,5)              0.0000000     
 -----------------------------------------------




 WEL PACKAGE (WEL-1) FLOW RATES TO-MVR   PERIOD     19   STEP       15
 -----------------------------------------------
   NUMBER   CELLID                    RATE      
 -----------------------------------------------
     1      (1,6,4)               0.0000000     
     2      (1,6,5)               0.0000000     
     3      (1,7,4)               0.0000000     
     4      (1,7,5)               0.0000000     
     5      (1,8,4)               0.0000000     
     6      (1,8,5)               0.0000000     
     7      (1,9,4)               0.0000000     
     8      (1,9,5)               0.0000000     
     9      (1,10,4)              0.0000000     
     10     (1,10,5)              0.0000000     
 -----------------------------------------------




 SFR PACKAGE (SFR-1) FLOW RATES   PERIOD     19   STEP       15
 ----------------------------------------------------------------------------------------
   NUMBER   CELLID                    RATE       NAME                                    
 ----------------------------------------------------------------------------------------
     1      (1,1,1)               0.22868377     ALLREACHES                              
     2      (1,2,2)               0.35499870     ALLREACHES                              
     3      (1,3,3)               0.30357347     ALLREACHES                              
     4      (1,3,4)               0.28021936     ALLREACHES                              
     5      (1,4,5)               0.29960805     ALLREACHES                              
     6      (1,5,6)               0.22987955     ALLREACHES                              
     7      (1,6,6)               0.22936563     ALLREACHES                              
     8      (1,7,6)               0.22884928     ALLREACHES                              
     9      (1,8,6)               0.22833044     ALLREACHES                              
     10     (1,3,5)               2.12214188E-02 ALLREACHES                              
     11     (1,3,6)               1.99133007E-02 ALLREACHES                              
     12     (1,3,7)               1.67956407E-02 ALLREACHES                              
     13     (1,4,8)               2.07205450E-02 ALLREACHES                              
     14     (1,5,8)               1.57905563E-02 ALLREACHES                              
     15     (1,6,8)               5.93648362E-03 ALLREACHES                              
     16     (1,5,10)              9.09197693E-02 ALLREACHES                              
     17     (1,5,9)               0.18157734     ALLREACHES                              
     18     (1,6,8)               0.12689514     ALLREACHES                              
     19     (1,6,8)               0.17138468     ALLREACHES                              
     20     (1,7,7)               0.21384773     ALLREACHES                              
     21     (1,8,7)               0.14943953     ALLREACHES                              
     22     (1,8,6)               0.10661428     ALLREACHES                              
     23     (1,9,6)               0.24837387     ALLREACHES                              
     24     (1,12,7)              2.55543347E-02 ALLREACHES                              
     25     (1,13,7)              2.81057114E-02 ALLREACHES                              
     26     (1,14,9)              2.6922030      ALLREACHES                              
     27     (1,13,8)              2.6824902      ALLREACHES                              
     28     (1,13,7)              2.0005165      ALLREACHES                              
     29     (1,13,6)             -2.9600252      ALLREACHES                              
     30     (1,13,2)             -3.3709387      ALLREACHES                              
     31     (1,13,1)             -1.3166298      ALLREACHES                              
 ----------------------------------------------------------------------------------------




 LAK PACKAGE (LAK-1) FLOW RATES   PERIOD     19   STEP       15
 -----------------------------------------------
   NUMBER   CELLID                    RATE      
 -----------------------------------------------
     1      (1,9,7)               7.99443974E-03
     2      (1,10,6)              1.02640926E-02
     3      (2,10,7)              0.91547913    
     4      (1,9,8)               5.42122031E-03
     5      (1,10,9)              1.05730753E-04
     6      (2,10,8)              0.89866749    
     7      (1,11,6)              1.11130166E-02
     8      (1,12,7)              1.03043283E-02
     9      (2,11,7)              0.90563868    
     10     (1,11,9)              2.63064214E-03
     11     (1,12,8)              9.94787100E-03
     12     (2,11,8)              0.88761782    
     13     (1,10,3)             -2.27004613E-03
     14     (1,11,2)             -1.35863229E-03
     15     (2,11,3)             -0.73342417    
     16     (1,10,4)             -1.55414268E-03
     17     (2,11,4)             -0.75526048    
     18     (1,10,5)             -3.81924883E-03
     19     (1,11,6)             -4.59742337E-03
     20     (2,11,5)             -0.78107640    
     21     (1,12,2)             -4.36495964E-03
     22     (2,12,3)             -0.71268813    
     23     (2,12,4)             -0.75091015    
     24     (1,12,6)             -6.27079914E-03
     25     (2,12,5)             -0.78639637    
     26     (1,13,2)             -1.24747630E-03
     27     (2,13,3)             -0.71566476    
     28     (2,13,4)             -0.76455229    
     29     (1,13,6)             -7.28258801E-03
     30     (2,13,5)             -0.80564355    
     31     (1,14,2)             -5.54270886E-03
     32     (1,15,3)              0.0000000     
     33     (2,14,3)             -0.75061465    
     34     (1,15,4)              0.0000000     
     35     (2,14,4)             -0.79297239    
     36     (1,14,6)             -7.72485575E-03
     37     (1,15,5)              0.0000000     
     38     (2,14,5)             -0.83324928    
 -----------------------------------------------




 SFR-1 PACKAGE - SUMMARY OF FLOWS FOR EACH CONTROL VOLUME   PERIOD     19   STEP       15
 --------------------------------------------------------------------------------------------------------------------------------------------------------------------------------------------------------
                                                                                                                                                                                               PERCENT   
   NUMBER   CELLID                  INFLOW      OUTFLOW        GWF        RAINFALL   EVAPORATION     RUNOFF     EXT INFLOW  EXT OUTFLOW    STORAGE      FROM MVR      TO MVR      IN - OUT    DIFFERENCE 
 --------------------------------------------------------------------------------------------------------------------------------------------------------------------------------------------------------
     1      (1,1,1)               0.0000      -24.771      -0.22868      0.0000       0.0000       0.0000       25.000       0.0000       0.0000       0.0000       0.0000       0.0000       0.0000     
     2      (1,2,2)               24.771      -24.416      -0.35500      0.0000       0.0000       0.0000       0.0000       0.0000       0.0000       0.0000       0.0000       0.0000       0.0000     
     3      (1,3,3)               24.416      -24.113      -0.30357      0.0000       0.0000       0.0000       0.0000       0.0000       0.0000       0.0000       0.0000       0.0000       0.0000     
     4      (1,3,4)               24.113      -23.833      -0.28022      0.0000       0.0000       0.0000       0.0000       0.0000       0.0000       0.0000       0.0000       0.0000       0.0000     
     5      (1,4,5)               13.833      -13.533      -0.29961      0.0000       0.0000       0.0000       0.0000       0.0000       0.0000       0.0000       0.0000       0.0000       0.0000     
     6      (1,5,6)               13.533      -13.303      -0.22988      0.0000       0.0000       0.0000       0.0000       0.0000       0.0000       0.0000       0.0000       0.0000       0.0000     
     7      (1,6,6)               13.303      -13.074      -0.22937      0.0000       0.0000       0.0000       0.0000       0.0000       0.0000       0.0000       0.0000       0.0000       0.0000     
     8      (1,7,6)               13.074      -12.845      -0.22885      0.0000       0.0000       0.0000       0.0000       0.0000       0.0000       0.0000       0.0000       0.0000       0.0000     
     9      (1,8,6)               12.845      -12.616      -0.22833      0.0000       0.0000       0.0000       0.0000       0.0000       0.0000       0.0000       0.0000       0.0000       0.0000     
     10     (1,3,5)               10.000      -9.9788      -2.12214E-02  0.0000       0.0000       0.0000       0.0000       0.0000       0.0000       0.0000       0.0000       0.0000       0.0000     
     11     (1,3,6)               9.9788      -9.9589      -1.99133E-02  0.0000       0.0000       0.0000       0.0000       0.0000       0.0000       0.0000       0.0000       0.0000       0.0000     
     12     (1,3,7)               9.9589      -9.9421      -1.67956E-02  0.0000       0.0000       0.0000       0.0000       0.0000       0.0000       0.0000       0.0000       0.0000       0.0000     
     13     (1,4,8)               9.9421      -9.9213      -2.07205E-02  0.0000       0.0000       0.0000       0.0000       0.0000       0.0000       0.0000       0.0000       0.0000       0.0000     
     14     (1,5,8)               9.9213      -9.9056      -1.57906E-02  0.0000       0.0000       0.0000       0.0000       0.0000       0.0000       0.0000       0.0000       0.0000       0.0000     
     15     (1,6,8)               9.9056      -9.8996      -5.93648E-03  0.0000       0.0000       0.0000       0.0000       0.0000       0.0000       0.0000       0.0000       0.0000       0.0000     
     16     (1,5,10)              0.0000      -9.9091      -9.09198E-02  0.0000       0.0000       0.0000       10.000       0.0000       0.0000       0.0000       0.0000       0.0000       0.0000     
     17     (1,5,9)               9.9091      -9.7275      -0.18158      0.0000       0.0000       0.0000       0.0000       0.0000       0.0000       0.0000       0.0000       0.0000       0.0000     
     18     (1,6,8)               9.7275      -9.6006      -0.12690      0.0000       0.0000       0.0000       0.0000       0.0000       0.0000       0.0000       0.0000       0.0000       0.0000     
     19     (1,6,8)               19.500      -19.329      -0.17138      0.0000       0.0000       0.0000       0.0000       0.0000       0.0000       0.0000       0.0000       0.0000       0.0000     
     20     (1,7,7)               19.329      -19.115      -0.21385      0.0000       0.0000       0.0000       0.0000       0.0000       0.0000       0.0000       0.0000       0.0000       0.0000     
     21     (1,8,7)               19.115      -18.966      -0.14944      0.0000       0.0000       0.0000       0.0000       0.0000       0.0000       0.0000       0.0000       0.0000       0.0000     
     22     (1,8,6)               18.966      -18.859      -0.10661      0.0000       0.0000       0.0000       0.0000       0.0000       0.0000       0.0000       0.0000       0.0000       0.0000     
     23     (1,9,6)               31.475       0.0000      -0.24837      0.0000       0.0000       0.0000       0.0000       0.0000       0.0000       0.0000      -31.227       0.0000       0.0000     
     24     (1,12,7)              0.0000      -32.967      -2.55543E-02  0.0000       0.0000       0.0000       0.0000       0.0000       0.0000       32.993       0.0000       0.0000       0.0000     
     25     (1,13,7)              32.967      -32.939      -2.81057E-02  0.0000       0.0000       0.0000       0.0000       0.0000       0.0000       0.0000       0.0000       0.0000       0.0000     
     26     (1,14,9)              0.0000      -147.31      -2.6922       0.0000       0.0000       0.0000       150.00       0.0000       0.0000       0.0000       0.0000       0.0000       0.0000     
     27     (1,13,8)              147.31      -144.63      -2.6825       0.0000       0.0000       0.0000       0.0000       0.0000       0.0000       0.0000       0.0000       0.0000       0.0000     
     28     (1,13,7)              144.63      -142.62      -2.0005       0.0000       0.0000       0.0000       0.0000       0.0000       0.0000       0.0000       0.0000       0.0000       0.0000     
     29     (1,13,6)              175.56       0.0000       2.9600       0.0000       0.0000       0.0000       0.0000      -4.83445E-09  0.0000       0.0000      -178.52       0.0000       0.0000     
     30     (1,13,2)              0.0000      -193.34       3.3709       0.0000       0.0000       0.0000       0.0000       0.0000       0.0000       189.97       0.0000       0.0000       0.0000     
     31     (1,13,1)              193.34       0.0000       1.3166       0.0000       0.0000       0.0000       0.0000      -201.56       0.0000       6.9095       0.0000       0.0000       0.0000     
 --------------------------------------------------------------------------------------------------------------------------------------------------------------------------------------------------------



 LAK-1 PACKAGE - SUMMARY OF FLOWS FOR EACH CONTROL VOLUME   PERIOD     19   STEP       15
 -----------------------------------------------------------------------------------------------------------------------------------------------------------------------------------
                                                                                                                                                                          PERCENT   
   NUMBER       GWF        RAINFALL   EVAPORATION     RUNOFF     EXT INFLOW   WITHDRAWAL  EXT OUTFLOW    STORAGE      CONSTANT     FROM MVR      TO MVR      IN - OUT    DIFFERENCE 
 -----------------------------------------------------------------------------------------------------------------------------------------------------------------------------------
     1      -3.6652       5.0000      -1.0000       1.5000       0.0000       0.0000       0.0000      -6.91015E-02  0.0000       31.227      -32.993       4.09678E-08  1.08590E-07
     2       9.2285       3.6000      -3.3000       3.0000       0.0000      -0.12000     -4.42985E-08 -1.0231       0.0000       178.52      -189.91       4.09173E-07  2.10531E-07
 -----------------------------------------------------------------------------------------------------------------------------------------------------------------------------------



 WATER MOVER PACKAGE (MVR) FLOW RATES   PERIOD     19   STEP       15
 --------------------------------------------------------------------------------------------------------------------------
                                               PROVIDER  AVAILABLE   PROVIDED                                     RECEIVER 
   NUMBER           PROVIDER LOCATION             ID        RATE       RATE            RECEIVER LOCATION             ID    
 --------------------------------------------------------------------------------------------------------------------------
     1                  E13/SFR-1                 23      31.2       31.2                  E13/LAK-1                 1     
     2                  E13/LAK-1                 1       33.0       33.0                  E13/SFR-1                 24    
     3                  E13/SFR-1                 29      179.       179.                  E13/LAK-1                 2     
     4                  E13/LAK-1                 2       190.       190.                  E13/SFR-1                 30    
     5                  E13/UZF-1                 1       0.00       0.00                  E13/SFR-1                 1     
     6                  E13/UZF-1                 2       0.00       0.00                  E13/SFR-1                 2     
     7                  E13/UZF-1                 3       0.00       0.00                  E13/SFR-1                 2     
     8                  E13/UZF-1                 4       0.00       0.00                  E13/SFR-1                 2     
     9                  E13/UZF-1                 5       0.00       0.00                  E13/SFR-1                 3     
     10                 E13/UZF-1                 6       0.00       0.00                  E13/SFR-1                 11    
     11                 E13/UZF-1                 7       0.00       0.00                  E13/SFR-1                 12    
     12                 E13/UZF-1                 8       0.00       0.00                  E13/SFR-1                 12    
     13                 E13/UZF-1                 9       0.00       0.00                  E13/SFR-1                 2     
     14                 E13/UZF-1                 10      0.00       0.00                  E13/SFR-1                 3     
     15                 E13/UZF-1                 11      0.00       0.00                  E13/SFR-1                 4     
     16                 E13/UZF-1                 12      0.00       0.00                  E13/SFR-1                 10    
     17                 E13/UZF-1                 13      0.00       0.00                  E13/SFR-1                 11    
     18                 E13/UZF-1                 14      0.00       0.00                  E13/SFR-1                 12    
     19                 E13/UZF-1                 15      0.00       0.00                  E13/SFR-1                 13    
     20                 E13/UZF-1                 16      0.00       0.00                  E13/LAK-1                 2     
     21                 E13/UZF-1                 17      0.00       0.00                  E13/LAK-1                 2     
     22                 E13/UZF-1                 18      0.00       0.00                  E13/SFR-1                 3     
     23                 E13/UZF-1                 19      0.00       0.00                  E13/SFR-1                 4     
     24                 E13/UZF-1                 20      0.00       0.00                  E13/SFR-1                 5     
     25                 E13/UZF-1                 21      0.00       0.00                  E13/SFR-1                 6     
     26                 E13/UZF-1                 22      0.00       0.00                  E13/SFR-1                 6     
     27                 E13/UZF-1                 23      0.00       0.00                  E13/SFR-1                 13    
     28                 E13/UZF-1                 24      0.00       0.00                  E13/SFR-1                 17    
     29                 E13/UZF-1                 25      0.00       0.00                  E13/LAK-1                 2     
     30                 E13/UZF-1                 26      0.00       0.00                  E13/LAK-1                 2     
     31                 E13/UZF-1                 27      0.00       0.00                  E13/LAK-1                 2     
     32                 E13/UZF-1                 28      0.00       0.00                  E13/LAK-1                 2     
     33                 E13/UZF-1                 29      0.00       0.00                  E13/SFR-1                 5     
     34                 E13/UZF-1                 30      0.00       0.00                  E13/SFR-1                 6     
     35                 E13/UZF-1                 31      0.00       0.00                  E13/SFR-1                 6     
     36                 E13/UZF-1                 32      0.00       0.00                  E13/SFR-1                 14    
     37                 E13/UZF-1                 33      0.00       0.00                  E13/SFR-1                 17    
     38                 E13/UZF-1                 34      0.00       0.00                  E13/SFR-1                 16    
     39                 E13/UZF-1                 35      0.00       0.00                  E13/LAK-1                 2     
     40                 E13/UZF-1                 36      0.00       0.00                  E13/LAK-1                 2     
     41                 E13/UZF-1                 37      0.00       0.00                  E13/LAK-1                 2     
     42                 E13/UZF-1                 38      0.00       0.00                  E13/LAK-1                 2     
     43                 E13/UZF-1                 39      0.00       0.00                  E13/LAK-1                 2     
     44                 E13/UZF-1                 40      0.00       0.00                  E13/SFR-1                 7     
     45                 E13/UZF-1                 41      0.00       0.00                  E13/SFR-1                 7     
     46                 E13/UZF-1                 42      0.00       0.00                  E13/SFR-1                 19    
     47                 E13/UZF-1                 43      0.00       0.00                  E13/SFR-1                 17    
     48                 E13/UZF-1                 44      0.00       0.00                  E13/SFR-1                 16    
     49                 E13/UZF-1                 45      0.00       0.00                  E13/LAK-1                 2     
     50                 E13/UZF-1                 46      0.00       0.00                  E13/LAK-1                 2     
     51                 E13/UZF-1                 47      0.00       0.00                  E13/LAK-1                 2     
     52                 E13/UZF-1                 48      0.00       0.00                  E13/LAK-1                 2     
     53                 E13/UZF-1                 49      0.00       0.00                  E13/LAK-1                 2     
     54                 E13/UZF-1                 50      0.00       0.00                  E13/SFR-1                 8     
     55                 E13/UZF-1                 51      0.00       0.00                  E13/SFR-1                 20    
     56                 E13/UZF-1                 52      0.00       0.00                  E13/SFR-1                 20    
     57                 E13/UZF-1                 53      0.00       0.00                  E13/SFR-1                 20    
     58                 E13/UZF-1                 54      0.00       0.00                  E13/LAK-1                 2     
     59                 E13/UZF-1                 55      0.00       0.00                  E13/LAK-1                 2     
     60                 E13/UZF-1                 56      0.00       0.00                  E13/LAK-1                 2     
     61                 E13/UZF-1                 57      0.00       0.00                  E13/LAK-1                 2     
     62                 E13/UZF-1                 58      0.00       0.00                  E13/SFR-1                 9     
     63                 E13/UZF-1                 59      0.00       0.00                  E13/SFR-1                 21    
     64                 E13/UZF-1                 60      0.00       0.00                  E13/SFR-1                 21    
     65                 E13/UZF-1                 61      0.00       0.00                  E13/SFR-1                 21    
     66                 E13/UZF-1                 62      0.00       0.00                  E13/LAK-1                 2     
     67                 E13/UZF-1                 63      0.00       0.00                  E13/LAK-1                 2     
     68                 E13/UZF-1                 64      0.00       0.00                  E13/LAK-1                 2     
     69                 E13/UZF-1                 65      0.00       0.00                  E13/LAK-1                 2     
     70                 E13/UZF-1                 66      0.00       0.00                  E13/SFR-1                 23    
     71                 E13/UZF-1                 67      0.00       0.00                  E13/LAK-1                 1     
     72                 E13/UZF-1                 68      0.00       0.00                  E13/LAK-1                 1     
     73                 E13/UZF-1                 69      0.00       0.00                  E13/LAK-1                 1     
     74                 E13/UZF-1                 70      0.00       0.00                  E13/LAK-1                 2     
     75                 E13/UZF-1                 71      0.00       0.00                  E13/LAK-1                 2     
     76                 E13/UZF-1                 72      0.00       0.00                  E13/LAK-1                 2     
     77                 E13/UZF-1                 73      0.00       0.00                  E13/LAK-1                 2     
     78                 E13/UZF-1                 74      0.00       0.00                  E13/LAK-1                 1     
     79                 E13/UZF-1                 75      0.00       0.00                  E13/LAK-1                 1     
     80                 E13/UZF-1                 76      0.00       0.00                  E13/LAK-1                 1     
     81                 E13/UZF-1                 77      0.00       0.00                  E13/LAK-1                 2     
     82                 E13/UZF-1                 78      0.00       0.00                  E13/SFR-1                 9     
     83                 E13/UZF-1                 79      0.00       0.00                  E13/LAK-1                 1     
     84                 E13/UZF-1                 80      0.00       0.00                  E13/SFR-1                 31    
     85                 E13/UZF-1                 81      0.00       0.00                  E13/SFR-1                 30    
     86                 E13/UZF-1                 82      0.00       0.00                  E13/SFR-1                 9     
     87                 E13/UZF-1                 83      0.00       0.00                  E13/SFR-1                 24    
     88                 E13/UZF-1                 84      0.00       0.00                  E13/LAK-1                 1     
     89                 E13/UZF-1                 85      0.00       0.00                  E13/LAK-1                 1     
     90                 E13/UZF-1                 86      6.91       6.91                  E13/SFR-1                 31    
     91                 E13/UZF-1                 87      5.810E-02  5.810E-02             E13/SFR-1                 30    
     92                 E13/UZF-1                 88      0.00       0.00                  E13/SFR-1                 29    
     93                 E13/UZF-1                 89      0.00       0.00                  E13/SFR-1                 28    
     94                 E13/UZF-1                 90      0.00       0.00                  E13/SFR-1                 27    
     95                 E13/UZF-1                 91      0.00       0.00                  E13/SFR-1                 26    
     96                 E13/UZF-1                 92      0.00       0.00                  E13/SFR-1                 30    
     97                 E13/UZF-1                 93      0.00       0.00                  E13/LAK-1                 2     
     98                 E13/UZF-1                 94      0.00       0.00                  E13/SFR-1                 28    
     99                 E13/UZF-1                 95      0.00       0.00                  E13/SFR-1                 27    
    100                 E13/UZF-1                 96      0.00       0.00                  E13/SFR-1                 26    
    101                 E13/UZF-1                 97      0.00       0.00                  E13/LAK-1                 2     
    102                 E13/UZF-1                 98      0.00       0.00                  E13/LAK-1                 2     
    103                 E13/UZF-1                 99      0.00       0.00                  E13/LAK-1                 2     
    104                 E13/UZF-1                100      0.00       0.00                  E13/LAK-1                 2     
    105                 E13/WEL-1                 1       0.00       0.00                  E13/UZF-1                 38    
    106                 E13/WEL-1                 2       0.00       0.00                  E13/UZF-1                 39    
    107                 E13/WEL-1                 3       0.00       0.00                  E13/UZF-1                 48    
    108                 E13/WEL-1                 4       0.00       0.00                  E13/UZF-1                 49    
    109                 E13/WEL-1                 5       0.00       0.00                  E13/UZF-1                 56    
    110                 E13/WEL-1                 6       0.00       0.00                  E13/UZF-1                 57    
    111                 E13/WEL-1                 7       0.00       0.00                  E13/UZF-1                 64    
    112                 E13/WEL-1                 8       0.00       0.00                  E13/UZF-1                 65    
    113                 E13/WEL-1                 9       0.00       0.00                  E13/UZF-1                 72    
    114                 E13/WEL-1                 10      0.00       0.00                  E13/UZF-1                 73    
 --------------------------------------------------------------------------------------------------------------------------



 SFR PACKAGE (SFR-1) STAGES FOR EACH CONTROL VOLUME   PERIOD     19   STEP       15
 ------------------------------------------------------------------------------------------------------------------------------------------------------
                                                                                                                               STREAMBED    STREAMBED  
 NAME                                       NUMBER   CELLID                  STAGE        DEPTH        WIDTH       GWF HEAD   CONDUCTANCE    GRADIENT  
 ------------------------------------------------------------------------------------------------------------------------------------------------------
 ALLREACHES                                   1      (1,1,1)               1094.3       1.2349       12.000       1020.6       5.40000E-02  1.4116     
 ALLREACHES                                   2      (1,2,2)               1089.3       1.2262       12.000       1021.1       8.40000E-02  1.4087     
 ALLREACHES                                   3      (1,3,3)               1083.6       1.2163       12.000       1021.2       7.20000E-02  1.4054     
 ALLREACHES                                   4      (1,3,4)               1078.6       1.2075       12.000       1021.6       6.66000E-02  1.4025     
 ALLREACHES                                   5      (1,4,5)               1072.8       0.84113      12.000       1021.6       7.80000E-02  1.2804     
 ALLREACHES                                   6      (1,5,6)               1067.3       0.83133      12.000       1020.9       6.00000E-02  1.2771     
 ALLREACHES                                   7      (1,6,6)               1062.6       0.82276      12.000       1019.8       6.00000E-02  1.2743     
 ALLREACHES                                   8      (1,7,6)               1057.9       0.81415      12.000       1019.6       6.00000E-02  1.2714     
 ALLREACHES                                   9      (1,8,6)               1053.2       0.80551      12.000       1019.5       6.00000E-02  1.2685     
 ALLREACHES                                   10     (1,3,5)               1074.6       0.93630      9.6364       1021.9       7.22727E-03  1.4681     
 ALLREACHES                                   11     (1,3,6)               1071.9       0.98022      8.9091       1022.0       6.68182E-03  1.4901     
 ALLREACHES                                   12     (1,3,7)               1069.3       1.0277       8.2182       1021.1       5.54727E-03  1.5139     
 ALLREACHES                                   13     (1,4,8)               1066.5       1.0884       7.4545       1020.1       6.70909E-03  1.5442     
 ALLREACHES                                   14     (1,5,8)               1063.6       1.1639       6.6545       1019.4       4.99091E-03  1.5819     
 ALLREACHES                                   15     (1,6,8)               1061.8       1.2200       6.1455       1020.0       1.84364E-03  1.6100     
 ALLREACHES                                   16     (1,5,10)              1078.4       0.63679      10.000       1020.3       2.50000E-02  1.2123     
 ALLREACHES                                   17     (1,5,9)               1071.5       0.63155      10.000       1020.6       5.00000E-02  1.2105     
 ALLREACHES                                   18     (1,6,8)               1063.8       0.62558      10.000       1020.0       3.50000E-02  1.2085     
 ALLREACHES                                   19     (1,6,8)               1060.0       1.2846       10.000       1020.0       4.00000E-02  1.4282     
 ALLREACHES                                   20     (1,7,7)               1056.9       1.2770       10.000       1019.7       5.00000E-02  1.4257     
 ALLREACHES                                   21     (1,8,7)               1054.1       1.2697       10.000       1019.5       3.50000E-02  1.4232     
 ALLREACHES                                   22     (1,8,6)               1052.1       1.2646       10.000       1019.5       2.50000E-02  1.4215     
 ALLREACHES                                   23     (1,9,6)               1046.6       1.1396       12.000       1019.1       6.00000E-02  1.3799     
 ALLREACHES                                   24     (1,12,7)              1037.7       1.2591       12.000       1020.6       6.00000E-03  1.4197     
 ALLREACHES                                   25     (1,13,7)              1030.2       1.2584       12.000       1024.8       6.60000E-03  1.4195     
 ALLREACHES                                   26     (1,14,9)              1034.8       1.4870       60.000       1027.9       0.60000      1.4957     
 ALLREACHES                                   27     (1,13,8)              1031.5       1.4708       60.000       1025.3       0.60000      1.4903     
 ALLREACHES                                   28     (1,13,7)              1028.1       1.4566       60.000       1024.8       0.60000      1.1114     
 ALLREACHES                                   29     (1,13,6)              1013.9       0.91340      60.000       1018.8       0.60000     -1.6445     
 ALLREACHES                                   30     (1,13,2)              998.31       1.4342       60.000       1003.9       0.60000     -1.8727     
 ALLREACHES                                   31     (1,13,1)              993.35       1.4754       60.000       997.01       0.36000     -1.2191     
 ------------------------------------------------------------------------------------------------------------------------------------------------------



 LAK PACKAGE (LAK-1) STAGES FOR EACH CONTROL VOLUME   PERIOD     19   STEP       15
 --------------------------------------------------------------
   NUMBER      STAGE     SURFACE AREA WETTED AREA     VOLUME   
 --------------------------------------------------------------
     1       1041.3       1.00000E+08  1.01383E+08  4.27598E+09
     2       1001.4       3.00000E+08  3.01585E+08  5.30292E+09
 --------------------------------------------------------------



 HEAD WILL BE SAVED ON UNIT 1026 AT END OF TIME STEP   15, STRESS PERIOD   19


  SFR-1 BUDGET FOR ENTIRE MODEL AT END OF TIME STEP   15, STRESS PERIOD  19
  ------------------------------------------------------------------------------

     CUMULATIVE SFR-1      L**3       RATES FOR THIS TIME STEP      L**3/T
     ------------------                 ------------------------

           IN:                                      IN:
           ---                                      ---
                 GWF =   311663647.7420                   GWF =           7.6476
            RAINFALL =           0.0000              RAINFALL =           0.0000
         EVAPORATION =           0.0000           EVAPORATION =           0.0000
              RUNOFF =           0.0000                RUNOFF =           0.0000
          EXT-INFLOW =  9237420000.0000            EXT-INFLOW =         185.0000
         EXT-OUTFLOW =       1.7046E-02           EXT-OUTFLOW =           0.0000
             STORAGE =           0.0000               STORAGE =           0.0000
            FROM-MVR = 11313788337.0451              FROM-MVR =         229.8697
              TO-MVR =           0.0000                TO-MVR =           0.0000

            TOTAL IN = 20862871984.8042              TOTAL IN =         422.5173

          OUT:                                     OUT:
          ----                                     ----
                 GWF =   591864332.4012                   GWF =          11.2018
            RAINFALL =           0.0000              RAINFALL =           0.0000
         EVAPORATION =           0.0000           EVAPORATION =           0.0000
              RUNOFF =           0.0000                RUNOFF =           0.0000
          EXT-INFLOW =           0.0000            EXT-INFLOW =           0.0000
         EXT-OUTFLOW =  9900063089.8925           EXT-OUTFLOW =         201.5645
             STORAGE =           0.0000               STORAGE =           0.0000
            FROM-MVR =           0.0000              FROM-MVR =           0.0000
              TO-MVR = 10370944562.5105                TO-MVR =         209.7510

           TOTAL OUT = 20862871984.8042             TOTAL OUT =         422.5173

            IN - OUT =       3.8147E-06              IN - OUT =      -5.6843E-14

 PERCENT DISCREPANCY =           0.00     PERCENT DISCREPANCY =          -0.00



  LAK-1 BUDGET FOR ENTIRE MODEL AT END OF TIME STEP   15, STRESS PERIOD  19
  ------------------------------------------------------------------------------

     CUMULATIVE LAK-1      L**3       RATES FOR THIS TIME STEP      L**3/T
     ------------------                 ------------------------

           IN:                                      IN:
           ---                                      ---
                 GWF =   394021349.3096                   GWF =           9.2285
            RAINFALL =   429415200.0000              RAINFALL =           8.6000
         EVAPORATION =           0.0000           EVAPORATION =           0.0000
              RUNOFF =   224694000.0000                RUNOFF =           4.5000
          EXT-INFLOW =           0.0000            EXT-INFLOW =           0.0000
          WITHDRAWAL =           0.0000            WITHDRAWAL =           0.0000
         EXT-OUTFLOW =           1.4865           EXT-OUTFLOW =           0.0000
             STORAGE =      334885.2259               STORAGE =           0.0000
            CONSTANT =           0.0000              CONSTANT =           0.0000
            FROM-MVR = 10370944562.5105              FROM-MVR =         209.7510
              TO-MVR =           0.0000                TO-MVR =           0.0000

            TOTAL IN = 11419409998.5325              TOTAL IN =         232.0795

          OUT:                                     OUT:
          ----                                     ----
                 GWF =   198007211.1564                   GWF =           3.6652
            RAINFALL =           0.0000              RAINFALL =           0.0000
         EVAPORATION =   214707600.0000           EVAPORATION =           4.3000
              RUNOFF =           0.0000                RUNOFF =           0.0000
          EXT-INFLOW =           0.0000            EXT-INFLOW =           0.0000
          WITHDRAWAL =     5991840.0000            WITHDRAWAL =           0.1200
         EXT-OUTFLOW =           4.3212           EXT-OUTFLOW =       4.4299E-08
             STORAGE =     5943264.0188               STORAGE =           1.0922
            CONSTANT =           0.0000              CONSTANT =           0.0000
            FROM-MVR =           0.0000              FROM-MVR =           0.0000
              TO-MVR = 10994760079.6277                TO-MVR =         222.9021

           TOTAL OUT = 11419409999.1241             TOTAL OUT =         232.0795

            IN - OUT =          -0.5917              IN - OUT =       4.5014E-07

 PERCENT DISCREPANCY =          -0.00     PERCENT DISCREPANCY =           0.00



  UZF-1 BUDGET FOR ENTIRE MODEL AT END OF TIME STEP   15, STRESS PERIOD  19
  ------------------------------------------------------------------------------

     CUMULATIVE UZF-1      L**3       RATES FOR THIS TIME STEP      L**3/T
     ------------------                 ------------------------

           IN:                                      IN:
           ---                                      ---
                 GWF =           0.0000                   GWF =           0.0000
        INFILTRATION =  5803452871.2000          INFILTRATION =          22.9500
             REJ-INF =           0.0000               REJ-INF =           0.0000
                UZET =           0.0000                  UZET =           0.0000
             STORAGE =  2006537945.5818               STORAGE =         207.6315
            FROM-MVR =   201042000.0000              FROM-MVR =           0.0000
      REJ-INF-TO-MVR =           0.0000        REJ-INF-TO-MVR =           0.0000

            TOTAL IN =  8011032816.7818              TOTAL IN =         230.5815

          OUT:                                     OUT:
          ----                                     ----
                 GWF =  1452438697.9346                   GWF =         127.7685
        INFILTRATION =           0.0000          INFILTRATION =           0.0000
             REJ-INF =          64.5223               REJ-INF =       8.6254E-09
                UZET =  1049652043.3595                  UZET =          21.9600
             STORAGE =  5487555140.5917               STORAGE =          80.7199
            FROM-MVR =           0.0000              FROM-MVR =           0.0000
      REJ-INF-TO-MVR =    21386788.9974        REJ-INF-TO-MVR =           0.1331

           TOTAL OUT =  8011032735.4055             TOTAL OUT =         230.5815

            IN - OUT =          81.3764              IN - OUT =       1.0673E-07

 PERCENT DISCREPANCY =           0.00     PERCENT DISCREPANCY =           0.00



  WATER MOVER BUDGET FOR ENTIRE MODEL AT END OF TIME STEP   15, STRESS PERIOD  19
  ------------------------------------------------------------------------------

     CUMULATIVE WATER MOVER      L**3       RATES FOR THIS TIME STEP      L**3/T
     ------------------                 ------------------------

           IN:                                      IN:
           ---                                      ---
               UZF-1 =   319028257.4174                 UZF-1 =           6.9676
               SFR-1 = 10370944562.5105                 SFR-1 =         209.7510
               LAK-1 = 10994760079.6277                 LAK-1 =         222.9021
               WEL-1 =   201042000.0000                 WEL-1 =           0.0000

            TOTAL IN = 21885774899.5556              TOTAL IN =         439.6207

          OUT:                                     OUT:
          ----                                     ----
               UZF-1 =   201042000.0000                 UZF-1 =           0.0000
               SFR-1 = 11313788337.0451                 SFR-1 =         229.8697
               LAK-1 = 10370944562.5105                 LAK-1 =         209.7510
               WEL-1 =           0.0000                 WEL-1 =           0.0000

           TOTAL OUT = 21885774899.5556             TOTAL OUT =         439.6207

            IN - OUT =       7.6294E-06              IN - OUT =           0.0000

 PERCENT DISCREPANCY =           0.00     PERCENT DISCREPANCY =           0.00



  VOLUME BUDGET FOR ENTIRE MODEL AT END OF TIME STEP   15, STRESS PERIOD  19
  ---------------------------------------------------------------------------------------------------

     CUMULATIVE VOLUME      L**3       RATES FOR THIS TIME STEP      L**3/T          PACKAGE NAME    
     ------------------                 ------------------------                     ----------------

           IN:                                      IN:
           ---                                      ---
              STO-SS =      884502.5588                STO-SS =       5.4465E-05     STORAGE                          
              STO-SY =   270508309.7737                STO-SY =           0.1824     STORAGE                          
                 WEL =           0.0000                   WEL =           0.0000     WEL-1                            
          WEL-TO-MVR =           0.0000            WEL-TO-MVR =           0.0000     WEL-1                            
                 GHB =    34489011.0938                   GHB =           0.6480     GHB_0                            
                 SFR =   591864330.9846                   SFR =          11.2018     SFR-1                            
                 LAK =   198007211.1564                   LAK =           3.6652     LAK-1                            
           UZF-GWRCH =  1452438697.9346             UZF-GWRCH =         127.7685     UZF-1                            
             UZF-GWD =           0.0000               UZF-GWD =           0.0000     UZF-1                            
      UZF-GWD TO-MVR =           0.0000        UZF-GWD TO-MVR =           0.0000     UZF-1                            
            UZF-GWET =           0.0000              UZF-GWET =           0.0000     UZF-1                            

            TOTAL IN =  2548192063.5019              TOTAL IN =         143.4659

          OUT:                                     OUT:
          ----                                     ----
              STO-SS =     6220658.9515                STO-SS =           0.8255     STORAGE                          
              STO-SY =  1291771863.5344                STO-SY =         117.9286     STORAGE                          
                 WEL =           0.0000                   WEL =           0.0000     WEL-1                            
          WEL-TO-MVR =   201042000.0000            WEL-TO-MVR =           0.0000     WEL-1                            
                 GHB =    17085712.4936                   GHB =           0.3423     GHB_0                            
                 SFR =   311663970.6095                   SFR =           7.6476     SFR-1                            
                 LAK =   394021349.3096                   LAK =           9.2285     LAK-1                            
           UZF-GWRCH =           0.0000             UZF-GWRCH =           0.0000     UZF-1                            
             UZF-GWD =         116.8173               UZF-GWD =       1.6280E-07     UZF-1                            
      UZF-GWD TO-MVR =   297641468.4200        UZF-GWD TO-MVR =           6.8345     UZF-1                            
            UZF-GWET =    28726277.1432              UZF-GWET =           0.6578     UZF-1                            

           TOTAL OUT =  2548173417.2790             TOTAL OUT =         143.4647

            IN - OUT =       18646.2229              IN - OUT =       1.2366E-03

 PERCENT DISCREPANCY =           0.00     PERCENT DISCREPANCY =           0.00




         TIME SUMMARY AT END OF TIME STEP   15 IN STRESS PERIOD   19
                    SECONDS     MINUTES      HOURS       DAYS        YEARS
                    -----------------------------------------------------------
   TIME STEP LENGTH 1.75200E+05  2920.0      48.667      2.0278     5.55175E-03
 STRESS PERIOD TIME 2.62800E+06  43800.      730.00      30.417     8.32763E-02
         TOTAL TIME 4.99320E+07 8.32200E+05  13870.      577.92      1.5822    


end timestep


start timestep kper="20" kstp="1" mode="normal"


 OUTPUT CONTROL FOR STRESS PERIOD 20 IS REPEATED USING SETTINGS FROM A PREVIOUS STRESS PERIOD.


 STRESS PERIOD 20 IS TRANSIENT


 REUSING MVRS FROM LAST STRESS PERIOD

 REUSING SFRS FROM LAST STRESS PERIOD

 REUSING LAKS FROM LAST STRESS PERIOD

end timestep


start timestep kper="20" kstp="2" mode="normal"


end timestep


start timestep kper="20" kstp="3" mode="normal"


end timestep


start timestep kper="20" kstp="4" mode="normal"


end timestep


start timestep kper="20" kstp="5" mode="normal"


end timestep


start timestep kper="20" kstp="6" mode="normal"


end timestep


start timestep kper="20" kstp="7" mode="normal"


end timestep


start timestep kper="20" kstp="8" mode="normal"


end timestep


start timestep kper="20" kstp="9" mode="normal"


end timestep


start timestep kper="20" kstp="10" mode="normal"


end timestep


start timestep kper="20" kstp="11" mode="normal"


end timestep


start timestep kper="20" kstp="12" mode="normal"


end timestep


start timestep kper="20" kstp="13" mode="normal"


end timestep


start timestep kper="20" kstp="14" mode="normal"


end timestep


start timestep kper="20" kstp="15" mode="normal"

 UBDSV1 SAVING           STO-SS ON UNIT   1025 AT TIME STEP     15, STRESS PERIOD     20
 UBDSV1 SAVING           STO-SY ON UNIT   1025 AT TIME STEP     15, STRESS PERIOD     20
 UBDSV1 SAVING     FLOW-JA-FACE ON UNIT   1025 AT TIME STEP     15, STRESS PERIOD     20
 UBDSV06 SAVING       DATA-SPDIS IN MODEL E13              PACKAGE NPF             CONNECTED TO MODEL E13              PACKAGE NPF              ON UNIT   1025 AT TIME STEP     15, STRESS PERIOD     20
 UBDSV06 SAVING              WEL IN MODEL E13              PACKAGE E13             CONNECTED TO MODEL E13              PACKAGE WEL-1            ON UNIT   1025 AT TIME STEP     15, STRESS PERIOD     20
 UBDSV06 SAVING       WEL-TO-MVR IN MODEL E13              PACKAGE E13             CONNECTED TO MODEL E13              PACKAGE WEL-1            ON UNIT   1025 AT TIME STEP     15, STRESS PERIOD     20
 UBDSV06 SAVING              GHB IN MODEL E13              PACKAGE E13             CONNECTED TO MODEL E13              PACKAGE GHB_0            ON UNIT   1025 AT TIME STEP     15, STRESS PERIOD     20
 UBDSV06 SAVING              SFR IN MODEL E13              PACKAGE E13             CONNECTED TO MODEL E13              PACKAGE SFR-1            ON UNIT   1025 AT TIME STEP     15, STRESS PERIOD     20
 UBDSV06 SAVING              LAK IN MODEL E13              PACKAGE E13             CONNECTED TO MODEL E13              PACKAGE LAK-1            ON UNIT   1025 AT TIME STEP     15, STRESS PERIOD     20
 UBDSV06 SAVING        UZF-GWRCH IN MODEL E13              PACKAGE E13             CONNECTED TO MODEL E13              PACKAGE UZF-1            ON UNIT   1025 AT TIME STEP     15, STRESS PERIOD     20
 UBDSV06 SAVING          UZF-GWD IN MODEL E13              PACKAGE E13             CONNECTED TO MODEL E13              PACKAGE UZF-1            ON UNIT   1025 AT TIME STEP     15, STRESS PERIOD     20
 UBDSV06 SAVING   UZF-GWD TO-MVR IN MODEL E13              PACKAGE E13             CONNECTED TO MODEL E13              PACKAGE UZF-1            ON UNIT   1025 AT TIME STEP     15, STRESS PERIOD     20
 UBDSV06 SAVING         UZF-GWET IN MODEL E13              PACKAGE E13             CONNECTED TO MODEL E13              PACKAGE UZF-1            ON UNIT   1025 AT TIME STEP     15, STRESS PERIOD     20
 UBDSV06 SAVING     FLOW-JA-FACE IN MODEL E13              PACKAGE SFR-1           CONNECTED TO MODEL E13              PACKAGE SFR-1            ON UNIT   1017 AT TIME STEP     15, STRESS PERIOD     20
 UBDSV06 SAVING              GWF IN MODEL E13              PACKAGE SFR-1           CONNECTED TO MODEL E13              PACKAGE E13              ON UNIT   1017 AT TIME STEP     15, STRESS PERIOD     20
 UBDSV06 SAVING         RAINFALL IN MODEL E13              PACKAGE SFR-1           CONNECTED TO MODEL E13              PACKAGE SFR-1            ON UNIT   1017 AT TIME STEP     15, STRESS PERIOD     20
 UBDSV06 SAVING      EVAPORATION IN MODEL E13              PACKAGE SFR-1           CONNECTED TO MODEL E13              PACKAGE SFR-1            ON UNIT   1017 AT TIME STEP     15, STRESS PERIOD     20
 UBDSV06 SAVING           RUNOFF IN MODEL E13              PACKAGE SFR-1           CONNECTED TO MODEL E13              PACKAGE SFR-1            ON UNIT   1017 AT TIME STEP     15, STRESS PERIOD     20
 UBDSV06 SAVING       EXT-INFLOW IN MODEL E13              PACKAGE SFR-1           CONNECTED TO MODEL E13              PACKAGE SFR-1            ON UNIT   1017 AT TIME STEP     15, STRESS PERIOD     20
 UBDSV06 SAVING      EXT-OUTFLOW IN MODEL E13              PACKAGE SFR-1           CONNECTED TO MODEL E13              PACKAGE SFR-1            ON UNIT   1017 AT TIME STEP     15, STRESS PERIOD     20
 UBDSV06 SAVING          STORAGE IN MODEL E13              PACKAGE SFR-1           CONNECTED TO MODEL E13              PACKAGE SFR-1            ON UNIT   1017 AT TIME STEP     15, STRESS PERIOD     20
 UBDSV06 SAVING         FROM-MVR IN MODEL E13              PACKAGE SFR-1           CONNECTED TO MODEL E13              PACKAGE SFR-1            ON UNIT   1017 AT TIME STEP     15, STRESS PERIOD     20
 UBDSV06 SAVING           TO-MVR IN MODEL E13              PACKAGE SFR-1           CONNECTED TO MODEL E13              PACKAGE SFR-1            ON UNIT   1017 AT TIME STEP     15, STRESS PERIOD     20
 UBDSV06 SAVING              GWF IN MODEL E13              PACKAGE LAK-1           CONNECTED TO MODEL E13              PACKAGE E13              ON UNIT   1019 AT TIME STEP     15, STRESS PERIOD     20
 UBDSV06 SAVING         RAINFALL IN MODEL E13              PACKAGE LAK-1           CONNECTED TO MODEL E13              PACKAGE LAK-1            ON UNIT   1019 AT TIME STEP     15, STRESS PERIOD     20
 UBDSV06 SAVING      EVAPORATION IN MODEL E13              PACKAGE LAK-1           CONNECTED TO MODEL E13              PACKAGE LAK-1            ON UNIT   1019 AT TIME STEP     15, STRESS PERIOD     20
 UBDSV06 SAVING           RUNOFF IN MODEL E13              PACKAGE LAK-1           CONNECTED TO MODEL E13              PACKAGE LAK-1            ON UNIT   1019 AT TIME STEP     15, STRESS PERIOD     20
 UBDSV06 SAVING       EXT-INFLOW IN MODEL E13              PACKAGE LAK-1           CONNECTED TO MODEL E13              PACKAGE LAK-1            ON UNIT   1019 AT TIME STEP     15, STRESS PERIOD     20
 UBDSV06 SAVING       WITHDRAWAL IN MODEL E13              PACKAGE LAK-1           CONNECTED TO MODEL E13              PACKAGE LAK-1            ON UNIT   1019 AT TIME STEP     15, STRESS PERIOD     20
 UBDSV06 SAVING      EXT-OUTFLOW IN MODEL E13              PACKAGE LAK-1           CONNECTED TO MODEL E13              PACKAGE LAK-1            ON UNIT   1019 AT TIME STEP     15, STRESS PERIOD     20
 UBDSV06 SAVING          STORAGE IN MODEL E13              PACKAGE LAK-1           CONNECTED TO MODEL E13              PACKAGE LAK-1            ON UNIT   1019 AT TIME STEP     15, STRESS PERIOD     20
 UBDSV06 SAVING         CONSTANT IN MODEL E13              PACKAGE LAK-1           CONNECTED TO MODEL E13              PACKAGE LAK-1            ON UNIT   1019 AT TIME STEP     15, STRESS PERIOD     20
 UBDSV06 SAVING         FROM-MVR IN MODEL E13              PACKAGE LAK-1           CONNECTED TO MODEL E13              PACKAGE LAK-1            ON UNIT   1019 AT TIME STEP     15, STRESS PERIOD     20
 UBDSV06 SAVING           TO-MVR IN MODEL E13              PACKAGE LAK-1           CONNECTED TO MODEL E13              PACKAGE LAK-1            ON UNIT   1019 AT TIME STEP     15, STRESS PERIOD     20
 UBDSV06 SAVING     FLOW-JA-FACE IN MODEL E13              PACKAGE UZF-1           CONNECTED TO MODEL E13              PACKAGE UZF-1            ON UNIT   1021 AT TIME STEP     15, STRESS PERIOD     20
 UBDSV06 SAVING              GWF IN MODEL E13              PACKAGE UZF-1           CONNECTED TO MODEL E13              PACKAGE E13              ON UNIT   1021 AT TIME STEP     15, STRESS PERIOD     20
 UBDSV06 SAVING     INFILTRATION IN MODEL E13              PACKAGE UZF-1           CONNECTED TO MODEL E13              PACKAGE UZF-1            ON UNIT   1021 AT TIME STEP     15, STRESS PERIOD     20
 UBDSV06 SAVING          REJ-INF IN MODEL E13              PACKAGE UZF-1           CONNECTED TO MODEL E13              PACKAGE UZF-1            ON UNIT   1021 AT TIME STEP     15, STRESS PERIOD     20
 UBDSV06 SAVING             UZET IN MODEL E13              PACKAGE UZF-1           CONNECTED TO MODEL E13              PACKAGE UZF-1            ON UNIT   1021 AT TIME STEP     15, STRESS PERIOD     20
 UBDSV06 SAVING          STORAGE IN MODEL E13              PACKAGE UZF-1           CONNECTED TO MODEL E13              PACKAGE UZF-1            ON UNIT   1021 AT TIME STEP     15, STRESS PERIOD     20
 UBDSV06 SAVING         FROM-MVR IN MODEL E13              PACKAGE UZF-1           CONNECTED TO MODEL E13              PACKAGE UZF-1            ON UNIT   1021 AT TIME STEP     15, STRESS PERIOD     20
 UBDSV06 SAVING   REJ-INF-TO-MVR IN MODEL E13              PACKAGE UZF-1           CONNECTED TO MODEL E13              PACKAGE UZF-1            ON UNIT   1021 AT TIME STEP     15, STRESS PERIOD     20
 UBDSV06 SAVING       MOVER-FLOW IN MODEL E13              PACKAGE UZF-1           CONNECTED TO MODEL E13              PACKAGE UZF-1            ON UNIT   1023 AT TIME STEP     15, STRESS PERIOD     20
 UBDSV06 SAVING       MOVER-FLOW IN MODEL E13              PACKAGE UZF-1           CONNECTED TO MODEL E13              PACKAGE SFR-1            ON UNIT   1023 AT TIME STEP     15, STRESS PERIOD     20
 UBDSV06 SAVING       MOVER-FLOW IN MODEL E13              PACKAGE UZF-1           CONNECTED TO MODEL E13              PACKAGE LAK-1            ON UNIT   1023 AT TIME STEP     15, STRESS PERIOD     20
 UBDSV06 SAVING       MOVER-FLOW IN MODEL E13              PACKAGE UZF-1           CONNECTED TO MODEL E13              PACKAGE WEL-1            ON UNIT   1023 AT TIME STEP     15, STRESS PERIOD     20
 UBDSV06 SAVING       MOVER-FLOW IN MODEL E13              PACKAGE SFR-1           CONNECTED TO MODEL E13              PACKAGE UZF-1            ON UNIT   1023 AT TIME STEP     15, STRESS PERIOD     20
 UBDSV06 SAVING       MOVER-FLOW IN MODEL E13              PACKAGE SFR-1           CONNECTED TO MODEL E13              PACKAGE SFR-1            ON UNIT   1023 AT TIME STEP     15, STRESS PERIOD     20
 UBDSV06 SAVING       MOVER-FLOW IN MODEL E13              PACKAGE SFR-1           CONNECTED TO MODEL E13              PACKAGE LAK-1            ON UNIT   1023 AT TIME STEP     15, STRESS PERIOD     20
 UBDSV06 SAVING       MOVER-FLOW IN MODEL E13              PACKAGE SFR-1           CONNECTED TO MODEL E13              PACKAGE WEL-1            ON UNIT   1023 AT TIME STEP     15, STRESS PERIOD     20
 UBDSV06 SAVING       MOVER-FLOW IN MODEL E13              PACKAGE LAK-1           CONNECTED TO MODEL E13              PACKAGE UZF-1            ON UNIT   1023 AT TIME STEP     15, STRESS PERIOD     20
 UBDSV06 SAVING       MOVER-FLOW IN MODEL E13              PACKAGE LAK-1           CONNECTED TO MODEL E13              PACKAGE SFR-1            ON UNIT   1023 AT TIME STEP     15, STRESS PERIOD     20
 UBDSV06 SAVING       MOVER-FLOW IN MODEL E13              PACKAGE LAK-1           CONNECTED TO MODEL E13              PACKAGE LAK-1            ON UNIT   1023 AT TIME STEP     15, STRESS PERIOD     20
 UBDSV06 SAVING       MOVER-FLOW IN MODEL E13              PACKAGE LAK-1           CONNECTED TO MODEL E13              PACKAGE WEL-1            ON UNIT   1023 AT TIME STEP     15, STRESS PERIOD     20
 UBDSV06 SAVING       MOVER-FLOW IN MODEL E13              PACKAGE WEL-1           CONNECTED TO MODEL E13              PACKAGE UZF-1            ON UNIT   1023 AT TIME STEP     15, STRESS PERIOD     20
 UBDSV06 SAVING       MOVER-FLOW IN MODEL E13              PACKAGE WEL-1           CONNECTED TO MODEL E13              PACKAGE SFR-1            ON UNIT   1023 AT TIME STEP     15, STRESS PERIOD     20
 UBDSV06 SAVING       MOVER-FLOW IN MODEL E13              PACKAGE WEL-1           CONNECTED TO MODEL E13              PACKAGE LAK-1            ON UNIT   1023 AT TIME STEP     15, STRESS PERIOD     20
 UBDSV06 SAVING       MOVER-FLOW IN MODEL E13              PACKAGE WEL-1           CONNECTED TO MODEL E13              PACKAGE WEL-1            ON UNIT   1023 AT TIME STEP     15, STRESS PERIOD     20

 WEL PACKAGE (WEL-1) FLOW RATES   PERIOD     20   STEP       15
 -----------------------------------------------
   NUMBER   CELLID                    RATE      
 -----------------------------------------------
     1      (1,6,4)               0.0000000     
     2      (1,6,5)               0.0000000     
     3      (1,7,4)               0.0000000     
     4      (1,7,5)               0.0000000     
     5      (1,8,4)               0.0000000     
     6      (1,8,5)               0.0000000     
     7      (1,9,4)               0.0000000     
     8      (1,9,5)               0.0000000     
     9      (1,10,4)              0.0000000     
     10     (1,10,5)              0.0000000     
 -----------------------------------------------




 WEL PACKAGE (WEL-1) FLOW RATES TO-MVR   PERIOD     20   STEP       15
 -----------------------------------------------
   NUMBER   CELLID                    RATE      
 -----------------------------------------------
     1      (1,6,4)               0.0000000     
     2      (1,6,5)               0.0000000     
     3      (1,7,4)               0.0000000     
     4      (1,7,5)               0.0000000     
     5      (1,8,4)               0.0000000     
     6      (1,8,5)               0.0000000     
     7      (1,9,4)               0.0000000     
     8      (1,9,5)               0.0000000     
     9      (1,10,4)              0.0000000     
     10     (1,10,5)              0.0000000     
 -----------------------------------------------




 SFR PACKAGE (SFR-1) FLOW RATES   PERIOD     20   STEP       15
 ----------------------------------------------------------------------------------------
   NUMBER   CELLID                    RATE       NAME                                    
 ----------------------------------------------------------------------------------------
     1      (1,1,1)               0.22868377     ALLREACHES                              
     2      (1,2,2)               0.35499870     ALLREACHES                              
     3      (1,3,3)               0.30357347     ALLREACHES                              
     4      (1,3,4)               0.28021936     ALLREACHES                              
     5      (1,4,5)               0.29960805     ALLREACHES                              
     6      (1,5,6)               0.22987955     ALLREACHES                              
     7      (1,6,6)               0.22936563     ALLREACHES                              
     8      (1,7,6)               0.22884928     ALLREACHES                              
     9      (1,8,6)               0.22833044     ALLREACHES                              
     10     (1,3,5)               2.12214188E-02 ALLREACHES                              
     11     (1,3,6)               1.99133007E-02 ALLREACHES                              
     12     (1,3,7)               1.67956407E-02 ALLREACHES                              
     13     (1,4,8)               2.07205450E-02 ALLREACHES                              
     14     (1,5,8)               1.57905563E-02 ALLREACHES                              
     15     (1,6,8)               5.93648362E-03 ALLREACHES                              
     16     (1,5,10)              9.09197693E-02 ALLREACHES                              
     17     (1,5,9)               0.18157734     ALLREACHES                              
     18     (1,6,8)               0.12689514     ALLREACHES                              
     19     (1,6,8)               0.17138468     ALLREACHES                              
     20     (1,7,7)               0.21384773     ALLREACHES                              
     21     (1,8,7)               0.14943953     ALLREACHES                              
     22     (1,8,6)               0.10661428     ALLREACHES                              
     23     (1,9,6)               0.24837387     ALLREACHES                              
     24     (1,12,7)              2.55731296E-02 ALLREACHES                              
     25     (1,13,7)              2.81263896E-02 ALLREACHES                              
     26     (1,14,9)              2.6922030      ALLREACHES                              
     27     (1,13,8)              2.6824902      ALLREACHES                              
     28     (1,13,7)              1.8933863      ALLREACHES                              
     29     (1,13,6)             -3.2192268      ALLREACHES                              
     30     (1,13,2)             -3.3934911      ALLREACHES                              
     31     (1,13,1)             -1.3119780      ALLREACHES                              
 ----------------------------------------------------------------------------------------




 LAK PACKAGE (LAK-1) FLOW RATES   PERIOD     20   STEP       15
 -----------------------------------------------
   NUMBER   CELLID                    RATE      
 -----------------------------------------------
     1      (1,9,7)               7.91068205E-03
     2      (1,10,6)              1.01090606E-02
     3      (2,10,7)              0.86602478    
     4      (1,9,8)               5.33729472E-03
     5      (1,10,9)              1.05934041E-04
     6      (2,10,8)              0.84373366    
     7      (1,11,6)              1.09435344E-02
     8      (1,12,7)              1.00832293E-02
     9      (2,11,7)              0.85024170    
     10     (1,11,9)              2.63165576E-03
     11     (1,12,8)              9.69301423E-03
     12     (2,11,8)              0.82549681    
     13     (1,10,3)             -2.96074918E-03
     14     (1,11,2)             -1.50621804E-03
     15     (2,11,3)             -0.80728017    
     16     (1,10,4)             -1.70112240E-03
     17     (2,11,4)             -0.82230247    
     18     (1,10,5)             -4.06328677E-03
     19     (1,11,6)             -4.74961751E-03
     20     (2,11,5)             -0.84133869    
     21     (1,12,2)             -4.74801471E-03
     22     (2,12,3)             -0.78580819    
     23     (2,12,4)             -0.82219844    
     24     (1,12,6)             -6.51666131E-03
     25     (2,12,5)             -0.85260110    
     26     (1,13,2)             -1.26960289E-03
     27     (2,13,3)             -0.79480252    
     28     (2,13,4)             -0.84486971    
     29     (1,13,6)             -7.53755553E-03
     30     (2,13,5)             -0.88107874    
     31     (1,14,2)             -5.93011876E-03
     32     (1,15,3)              0.0000000     
     33     (2,14,3)             -0.84416328    
     34     (1,15,4)              0.0000000     
     35     (2,14,4)             -0.88873815    
     36     (1,14,6)             -7.24921186E-03
     37     (1,15,5)              0.0000000     
     38     (2,14,5)             -0.92347366    
 -----------------------------------------------




 SFR-1 PACKAGE - SUMMARY OF FLOWS FOR EACH CONTROL VOLUME   PERIOD     20   STEP       15
 --------------------------------------------------------------------------------------------------------------------------------------------------------------------------------------------------------
                                                                                                                                                                                               PERCENT   
   NUMBER   CELLID                  INFLOW      OUTFLOW        GWF        RAINFALL   EVAPORATION     RUNOFF     EXT INFLOW  EXT OUTFLOW    STORAGE      FROM MVR      TO MVR      IN - OUT    DIFFERENCE 
 --------------------------------------------------------------------------------------------------------------------------------------------------------------------------------------------------------
     1      (1,1,1)               0.0000      -24.771      -0.22868      0.0000       0.0000       0.0000       25.000       0.0000       0.0000       0.0000       0.0000       0.0000       0.0000     
     2      (1,2,2)               24.771      -24.416      -0.35500      0.0000       0.0000       0.0000       0.0000       0.0000       0.0000       0.0000       0.0000       0.0000       0.0000     
     3      (1,3,3)               24.416      -24.113      -0.30357      0.0000       0.0000       0.0000       0.0000       0.0000       0.0000       0.0000       0.0000       0.0000       0.0000     
     4      (1,3,4)               24.113      -23.833      -0.28022      0.0000       0.0000       0.0000       0.0000       0.0000       0.0000       0.0000       0.0000       0.0000       0.0000     
     5      (1,4,5)               13.833      -13.533      -0.29961      0.0000       0.0000       0.0000       0.0000       0.0000       0.0000       0.0000       0.0000       0.0000       0.0000     
     6      (1,5,6)               13.533      -13.303      -0.22988      0.0000       0.0000       0.0000       0.0000       0.0000       0.0000       0.0000       0.0000       0.0000       0.0000     
     7      (1,6,6)               13.303      -13.074      -0.22937      0.0000       0.0000       0.0000       0.0000       0.0000       0.0000       0.0000       0.0000       0.0000       0.0000     
     8      (1,7,6)               13.074      -12.845      -0.22885      0.0000       0.0000       0.0000       0.0000       0.0000       0.0000       0.0000       0.0000       0.0000       0.0000     
     9      (1,8,6)               12.845      -12.616      -0.22833      0.0000       0.0000       0.0000       0.0000       0.0000       0.0000       0.0000       0.0000       0.0000       0.0000     
     10     (1,3,5)               10.000      -9.9788      -2.12214E-02  0.0000       0.0000       0.0000       0.0000       0.0000       0.0000       0.0000       0.0000       0.0000       0.0000     
     11     (1,3,6)               9.9788      -9.9589      -1.99133E-02  0.0000       0.0000       0.0000       0.0000       0.0000       0.0000       0.0000       0.0000       0.0000       0.0000     
     12     (1,3,7)               9.9589      -9.9421      -1.67956E-02  0.0000       0.0000       0.0000       0.0000       0.0000       0.0000       0.0000       0.0000       0.0000       0.0000     
     13     (1,4,8)               9.9421      -9.9213      -2.07205E-02  0.0000       0.0000       0.0000       0.0000       0.0000       0.0000       0.0000       0.0000       0.0000       0.0000     
     14     (1,5,8)               9.9213      -9.9056      -1.57906E-02  0.0000       0.0000       0.0000       0.0000       0.0000       0.0000       0.0000       0.0000       0.0000       0.0000     
     15     (1,6,8)               9.9056      -9.8996      -5.93648E-03  0.0000       0.0000       0.0000       0.0000       0.0000       0.0000       0.0000       0.0000       0.0000       0.0000     
     16     (1,5,10)              0.0000      -9.9091      -9.09198E-02  0.0000       0.0000       0.0000       10.000       0.0000       0.0000       0.0000       0.0000       0.0000       0.0000     
     17     (1,5,9)               9.9091      -9.7275      -0.18158      0.0000       0.0000       0.0000       0.0000       0.0000       0.0000       0.0000       0.0000       0.0000       0.0000     
     18     (1,6,8)               9.7275      -9.6006      -0.12690      0.0000       0.0000       0.0000       0.0000       0.0000       0.0000       0.0000       0.0000       0.0000       0.0000     
     19     (1,6,8)               19.500      -19.329      -0.17138      0.0000       0.0000       0.0000       0.0000       0.0000       0.0000       0.0000       0.0000       0.0000       0.0000     
     20     (1,7,7)               19.329      -19.115      -0.21385      0.0000       0.0000       0.0000       0.0000       0.0000       0.0000       0.0000       0.0000       0.0000       0.0000     
     21     (1,8,7)               19.115      -18.966      -0.14944      0.0000       0.0000       0.0000       0.0000       0.0000       0.0000       0.0000       0.0000       0.0000       0.0000     
     22     (1,8,6)               18.966      -18.859      -0.10661      0.0000       0.0000       0.0000       0.0000       0.0000       0.0000       0.0000       0.0000       0.0000       0.0000     
     23     (1,9,6)               31.475       0.0000      -0.24837      0.0000       0.0000       0.0000       0.0000       0.0000       0.0000       0.0000      -31.227       0.0000       0.0000     
     24     (1,12,7)              0.0000      -33.104      -2.55731E-02  0.0000       0.0000       0.0000       0.0000       0.0000       0.0000       33.130       0.0000       0.0000       0.0000     
     25     (1,13,7)              33.104      -33.076      -2.81264E-02  0.0000       0.0000       0.0000       0.0000       0.0000       0.0000       0.0000       0.0000       0.0000       0.0000     
     26     (1,14,9)              0.0000      -147.31      -2.6922       0.0000       0.0000       0.0000       150.00       0.0000       0.0000       0.0000       0.0000       0.0000       0.0000     
     27     (1,13,8)              147.31      -144.63      -2.6825       0.0000       0.0000       0.0000       0.0000       0.0000       0.0000       0.0000       0.0000       0.0000       0.0000     
     28     (1,13,7)              144.63      -142.73      -1.8934       0.0000       0.0000       0.0000       0.0000       0.0000       0.0000       0.0000       0.0000       0.0000       0.0000     
     29     (1,13,6)              175.81       0.0000       3.2192       0.0000       0.0000       0.0000       0.0000      -3.88985E-09  0.0000       0.0000      -179.03       0.0000       0.0000     
     30     (1,13,2)              0.0000      -196.08       3.3935       0.0000       0.0000       0.0000       0.0000       0.0000       0.0000       192.69       0.0000       0.0000       0.0000     
     31     (1,13,1)              196.08       0.0000       1.3120       0.0000       0.0000       0.0000       0.0000      -204.91       0.0000       7.5216       0.0000       0.0000       0.0000     
 --------------------------------------------------------------------------------------------------------------------------------------------------------------------------------------------------------



 LAK-1 PACKAGE - SUMMARY OF FLOWS FOR EACH CONTROL VOLUME   PERIOD     20   STEP       15
 -----------------------------------------------------------------------------------------------------------------------------------------------------------------------------------
                                                                                                                                                                          PERCENT   
   NUMBER       GWF        RAINFALL   EVAPORATION     RUNOFF     EXT INFLOW   WITHDRAWAL  EXT OUTFLOW    STORAGE      CONSTANT     FROM MVR      TO MVR      IN - OUT    DIFFERENCE 
 -----------------------------------------------------------------------------------------------------------------------------------------------------------------------------------
     1      -3.4423       5.0000      -1.0000       1.5000       0.0000       0.0000       0.0000      -0.15510      0.0000       31.227      -33.130       2.88317E-08  7.64217E-08
     2       10.157       3.6000      -3.3000       3.0000       0.0000      -0.12000     -2.07629E-09 -0.68019      0.0000       179.03      -191.68       3.03291E-07  1.54911E-07
 -----------------------------------------------------------------------------------------------------------------------------------------------------------------------------------



 WATER MOVER PACKAGE (MVR) FLOW RATES   PERIOD     20   STEP       15
 --------------------------------------------------------------------------------------------------------------------------
                                               PROVIDER  AVAILABLE   PROVIDED                                     RECEIVER 
   NUMBER           PROVIDER LOCATION             ID        RATE       RATE            RECEIVER LOCATION             ID    
 --------------------------------------------------------------------------------------------------------------------------
     1                  E13/SFR-1                 23      31.2       31.2                  E13/LAK-1                 1     
     2                  E13/LAK-1                 1       33.1       33.1                  E13/SFR-1                 24    
     3                  E13/SFR-1                 29      179.       179.                  E13/LAK-1                 2     
     4                  E13/LAK-1                 2       192.       192.                  E13/SFR-1                 30    
     5                  E13/UZF-1                 1       0.00       0.00                  E13/SFR-1                 1     
     6                  E13/UZF-1                 2       0.00       0.00                  E13/SFR-1                 2     
     7                  E13/UZF-1                 3       0.00       0.00                  E13/SFR-1                 2     
     8                  E13/UZF-1                 4       0.00       0.00                  E13/SFR-1                 2     
     9                  E13/UZF-1                 5       0.00       0.00                  E13/SFR-1                 3     
     10                 E13/UZF-1                 6       0.00       0.00                  E13/SFR-1                 11    
     11                 E13/UZF-1                 7       0.00       0.00                  E13/SFR-1                 12    
     12                 E13/UZF-1                 8       0.00       0.00                  E13/SFR-1                 12    
     13                 E13/UZF-1                 9       0.00       0.00                  E13/SFR-1                 2     
     14                 E13/UZF-1                 10      0.00       0.00                  E13/SFR-1                 3     
     15                 E13/UZF-1                 11      0.00       0.00                  E13/SFR-1                 4     
     16                 E13/UZF-1                 12      0.00       0.00                  E13/SFR-1                 10    
     17                 E13/UZF-1                 13      0.00       0.00                  E13/SFR-1                 11    
     18                 E13/UZF-1                 14      0.00       0.00                  E13/SFR-1                 12    
     19                 E13/UZF-1                 15      0.00       0.00                  E13/SFR-1                 13    
     20                 E13/UZF-1                 16      0.00       0.00                  E13/LAK-1                 2     
     21                 E13/UZF-1                 17      0.00       0.00                  E13/LAK-1                 2     
     22                 E13/UZF-1                 18      0.00       0.00                  E13/SFR-1                 3     
     23                 E13/UZF-1                 19      0.00       0.00                  E13/SFR-1                 4     
     24                 E13/UZF-1                 20      0.00       0.00                  E13/SFR-1                 5     
     25                 E13/UZF-1                 21      0.00       0.00                  E13/SFR-1                 6     
     26                 E13/UZF-1                 22      0.00       0.00                  E13/SFR-1                 6     
     27                 E13/UZF-1                 23      0.00       0.00                  E13/SFR-1                 13    
     28                 E13/UZF-1                 24      0.00       0.00                  E13/SFR-1                 17    
     29                 E13/UZF-1                 25      0.00       0.00                  E13/LAK-1                 2     
     30                 E13/UZF-1                 26      0.00       0.00                  E13/LAK-1                 2     
     31                 E13/UZF-1                 27      0.00       0.00                  E13/LAK-1                 2     
     32                 E13/UZF-1                 28      0.00       0.00                  E13/LAK-1                 2     
     33                 E13/UZF-1                 29      0.00       0.00                  E13/SFR-1                 5     
     34                 E13/UZF-1                 30      0.00       0.00                  E13/SFR-1                 6     
     35                 E13/UZF-1                 31      0.00       0.00                  E13/SFR-1                 6     
     36                 E13/UZF-1                 32      0.00       0.00                  E13/SFR-1                 14    
     37                 E13/UZF-1                 33      0.00       0.00                  E13/SFR-1                 17    
     38                 E13/UZF-1                 34      0.00       0.00                  E13/SFR-1                 16    
     39                 E13/UZF-1                 35      0.00       0.00                  E13/LAK-1                 2     
     40                 E13/UZF-1                 36      0.00       0.00                  E13/LAK-1                 2     
     41                 E13/UZF-1                 37      0.00       0.00                  E13/LAK-1                 2     
     42                 E13/UZF-1                 38      0.00       0.00                  E13/LAK-1                 2     
     43                 E13/UZF-1                 39      0.00       0.00                  E13/LAK-1                 2     
     44                 E13/UZF-1                 40      0.00       0.00                  E13/SFR-1                 7     
     45                 E13/UZF-1                 41      0.00       0.00                  E13/SFR-1                 7     
     46                 E13/UZF-1                 42      0.00       0.00                  E13/SFR-1                 19    
     47                 E13/UZF-1                 43      0.00       0.00                  E13/SFR-1                 17    
     48                 E13/UZF-1                 44      0.00       0.00                  E13/SFR-1                 16    
     49                 E13/UZF-1                 45      0.00       0.00                  E13/LAK-1                 2     
     50                 E13/UZF-1                 46      0.00       0.00                  E13/LAK-1                 2     
     51                 E13/UZF-1                 47      0.00       0.00                  E13/LAK-1                 2     
     52                 E13/UZF-1                 48      0.00       0.00                  E13/LAK-1                 2     
     53                 E13/UZF-1                 49      0.00       0.00                  E13/LAK-1                 2     
     54                 E13/UZF-1                 50      0.00       0.00                  E13/SFR-1                 8     
     55                 E13/UZF-1                 51      0.00       0.00                  E13/SFR-1                 20    
     56                 E13/UZF-1                 52      0.00       0.00                  E13/SFR-1                 20    
     57                 E13/UZF-1                 53      0.00       0.00                  E13/SFR-1                 20    
     58                 E13/UZF-1                 54      0.00       0.00                  E13/LAK-1                 2     
     59                 E13/UZF-1                 55      0.00       0.00                  E13/LAK-1                 2     
     60                 E13/UZF-1                 56      0.00       0.00                  E13/LAK-1                 2     
     61                 E13/UZF-1                 57      0.00       0.00                  E13/LAK-1                 2     
     62                 E13/UZF-1                 58      0.00       0.00                  E13/SFR-1                 9     
     63                 E13/UZF-1                 59      0.00       0.00                  E13/SFR-1                 21    
     64                 E13/UZF-1                 60      0.00       0.00                  E13/SFR-1                 21    
     65                 E13/UZF-1                 61      0.00       0.00                  E13/SFR-1                 21    
     66                 E13/UZF-1                 62      0.00       0.00                  E13/LAK-1                 2     
     67                 E13/UZF-1                 63      0.00       0.00                  E13/LAK-1                 2     
     68                 E13/UZF-1                 64      0.00       0.00                  E13/LAK-1                 2     
     69                 E13/UZF-1                 65      0.00       0.00                  E13/LAK-1                 2     
     70                 E13/UZF-1                 66      0.00       0.00                  E13/SFR-1                 23    
     71                 E13/UZF-1                 67      0.00       0.00                  E13/LAK-1                 1     
     72                 E13/UZF-1                 68      0.00       0.00                  E13/LAK-1                 1     
     73                 E13/UZF-1                 69      0.00       0.00                  E13/LAK-1                 1     
     74                 E13/UZF-1                 70      0.00       0.00                  E13/LAK-1                 2     
     75                 E13/UZF-1                 71      0.00       0.00                  E13/LAK-1                 2     
     76                 E13/UZF-1                 72      0.00       0.00                  E13/LAK-1                 2     
     77                 E13/UZF-1                 73      0.00       0.00                  E13/LAK-1                 2     
     78                 E13/UZF-1                 74      0.00       0.00                  E13/LAK-1                 1     
     79                 E13/UZF-1                 75      0.00       0.00                  E13/LAK-1                 1     
     80                 E13/UZF-1                 76      0.00       0.00                  E13/LAK-1                 1     
     81                 E13/UZF-1                 77      0.00       0.00                  E13/LAK-1                 2     
     82                 E13/UZF-1                 78      0.00       0.00                  E13/SFR-1                 9     
     83                 E13/UZF-1                 79      0.00       0.00                  E13/LAK-1                 1     
     84                 E13/UZF-1                 80      0.00       0.00                  E13/SFR-1                 31    
     85                 E13/UZF-1                 81      0.00       0.00                  E13/SFR-1                 30    
     86                 E13/UZF-1                 82      0.00       0.00                  E13/SFR-1                 9     
     87                 E13/UZF-1                 83      0.00       0.00                  E13/SFR-1                 24    
     88                 E13/UZF-1                 84      0.00       0.00                  E13/LAK-1                 1     
     89                 E13/UZF-1                 85      0.00       0.00                  E13/LAK-1                 1     
     90                 E13/UZF-1                 86      7.52       7.52                  E13/SFR-1                 31    
     91                 E13/UZF-1                 87      1.00       1.00                  E13/SFR-1                 30    
     92                 E13/UZF-1                 88      0.00       0.00                  E13/SFR-1                 29    
     93                 E13/UZF-1                 89      0.00       0.00                  E13/SFR-1                 28    
     94                 E13/UZF-1                 90      0.00       0.00                  E13/SFR-1                 27    
     95                 E13/UZF-1                 91      0.00       0.00                  E13/SFR-1                 26    
     96                 E13/UZF-1                 92      0.00       0.00                  E13/SFR-1                 30    
     97                 E13/UZF-1                 93      0.00       0.00                  E13/LAK-1                 2     
     98                 E13/UZF-1                 94      0.00       0.00                  E13/SFR-1                 28    
     99                 E13/UZF-1                 95      0.00       0.00                  E13/SFR-1                 27    
    100                 E13/UZF-1                 96      0.00       0.00                  E13/SFR-1                 26    
    101                 E13/UZF-1                 97      0.00       0.00                  E13/LAK-1                 2     
    102                 E13/UZF-1                 98      0.00       0.00                  E13/LAK-1                 2     
    103                 E13/UZF-1                 99      0.00       0.00                  E13/LAK-1                 2     
    104                 E13/UZF-1                100      0.00       0.00                  E13/LAK-1                 2     
    105                 E13/WEL-1                 1       0.00       0.00                  E13/UZF-1                 38    
    106                 E13/WEL-1                 2       0.00       0.00                  E13/UZF-1                 39    
    107                 E13/WEL-1                 3       0.00       0.00                  E13/UZF-1                 48    
    108                 E13/WEL-1                 4       0.00       0.00                  E13/UZF-1                 49    
    109                 E13/WEL-1                 5       0.00       0.00                  E13/UZF-1                 56    
    110                 E13/WEL-1                 6       0.00       0.00                  E13/UZF-1                 57    
    111                 E13/WEL-1                 7       0.00       0.00                  E13/UZF-1                 64    
    112                 E13/WEL-1                 8       0.00       0.00                  E13/UZF-1                 65    
    113                 E13/WEL-1                 9       0.00       0.00                  E13/UZF-1                 72    
    114                 E13/WEL-1                 10      0.00       0.00                  E13/UZF-1                 73    
 --------------------------------------------------------------------------------------------------------------------------



 SFR PACKAGE (SFR-1) STAGES FOR EACH CONTROL VOLUME   PERIOD     20   STEP       15
 ------------------------------------------------------------------------------------------------------------------------------------------------------
                                                                                                                               STREAMBED    STREAMBED  
 NAME                                       NUMBER   CELLID                  STAGE        DEPTH        WIDTH       GWF HEAD   CONDUCTANCE    GRADIENT  
 ------------------------------------------------------------------------------------------------------------------------------------------------------
 ALLREACHES                                   1      (1,1,1)               1094.3       1.2349       12.000       1020.8       5.40000E-02  1.4116     
 ALLREACHES                                   2      (1,2,2)               1089.3       1.2262       12.000       1021.4       8.40000E-02  1.4087     
 ALLREACHES                                   3      (1,3,3)               1083.6       1.2163       12.000       1021.6       7.20000E-02  1.4054     
 ALLREACHES                                   4      (1,3,4)               1078.6       1.2075       12.000       1022.1       6.66000E-02  1.4025     
 ALLREACHES                                   5      (1,4,5)               1072.8       0.84113      12.000       1022.2       7.80000E-02  1.2804     
 ALLREACHES                                   6      (1,5,6)               1067.3       0.83133      12.000       1021.4       6.00000E-02  1.2771     
 ALLREACHES                                   7      (1,6,6)               1062.6       0.82276      12.000       1020.0       6.00000E-02  1.2743     
 ALLREACHES                                   8      (1,7,6)               1057.9       0.81415      12.000       1019.8       6.00000E-02  1.2714     
 ALLREACHES                                   9      (1,8,6)               1053.2       0.80551      12.000       1019.7       6.00000E-02  1.2685     
 ALLREACHES                                   10     (1,3,5)               1074.6       0.93630      9.6364       1022.6       7.22727E-03  1.4681     
 ALLREACHES                                   11     (1,3,6)               1071.9       0.98022      8.9091       1023.3       6.68182E-03  1.4901     
 ALLREACHES                                   12     (1,3,7)               1069.3       1.0277       8.2182       1022.9       5.54727E-03  1.5139     
 ALLREACHES                                   13     (1,4,8)               1066.5       1.0884       7.4545       1020.3       6.70909E-03  1.5442     
 ALLREACHES                                   14     (1,5,8)               1063.6       1.1639       6.6545       1019.6       4.99091E-03  1.5819     
 ALLREACHES                                   15     (1,6,8)               1061.8       1.2200       6.1455       1020.2       1.84364E-03  1.6100     
 ALLREACHES                                   16     (1,5,10)              1078.4       0.63679      10.000       1020.5       2.50000E-02  1.2123     
 ALLREACHES                                   17     (1,5,9)               1071.5       0.63155      10.000       1020.9       5.00000E-02  1.2105     
 ALLREACHES                                   18     (1,6,8)               1063.8       0.62558      10.000       1020.2       3.50000E-02  1.2085     
 ALLREACHES                                   19     (1,6,8)               1060.0       1.2846       10.000       1020.2       4.00000E-02  1.4282     
 ALLREACHES                                   20     (1,7,7)               1056.9       1.2770       10.000       1019.9       5.00000E-02  1.4257     
 ALLREACHES                                   21     (1,8,7)               1054.1       1.2697       10.000       1019.7       3.50000E-02  1.4232     
 ALLREACHES                                   22     (1,8,6)               1052.1       1.2646       10.000       1019.7       2.50000E-02  1.4215     
 ALLREACHES                                   23     (1,9,6)               1046.6       1.1396       12.000       1019.3       6.00000E-02  1.3799     
 ALLREACHES                                   24     (1,12,7)              1037.7       1.2622       12.000       1021.1       6.00000E-03  1.4207     
 ALLREACHES                                   25     (1,13,7)              1030.2       1.2616       12.000       1025.0       6.60000E-03  1.4205     
 ALLREACHES                                   26     (1,14,9)              1034.8       1.4870       60.000       1028.3       0.60000      1.4957     
 ALLREACHES                                   27     (1,13,8)              1031.5       1.4708       60.000       1025.8       0.60000      1.4903     
 ALLREACHES                                   28     (1,13,7)              1028.1       1.4569       60.000       1025.0       0.60000      1.0519     
 ALLREACHES                                   29     (1,13,6)              1013.9       0.91456      60.000       1019.3       0.60000     -1.7885     
 ALLREACHES                                   30     (1,13,2)              998.32       1.4465       60.000       1004.0       0.60000     -1.8853     
 ALLREACHES                                   31     (1,13,1)              993.37       1.4901       60.000       997.01       0.36000     -1.2148     
 ------------------------------------------------------------------------------------------------------------------------------------------------------



 LAK PACKAGE (LAK-1) STAGES FOR EACH CONTROL VOLUME   PERIOD     20   STEP       15
 --------------------------------------------------------------
   NUMBER      STAGE     SURFACE AREA WETTED AREA     VOLUME   
 --------------------------------------------------------------
     1       1041.3       1.00000E+08  1.01383E+08  4.27629E+09
     2       1001.4       3.00000E+08  3.01615E+08  5.30531E+09
 --------------------------------------------------------------



 HEAD WILL BE SAVED ON UNIT 1026 AT END OF TIME STEP   15, STRESS PERIOD   20


  SFR-1 BUDGET FOR ENTIRE MODEL AT END OF TIME STEP   15, STRESS PERIOD  20
  ------------------------------------------------------------------------------

     CUMULATIVE SFR-1      L**3       RATES FOR THIS TIME STEP      L**3/T
     ------------------                 ------------------------

           IN:                                      IN:
           ---                                      ---
                 GWF =   332323010.3529                   GWF =           7.9247
            RAINFALL =           0.0000              RAINFALL =           0.0000
         EVAPORATION =           0.0000           EVAPORATION =           0.0000
              RUNOFF =           0.0000                RUNOFF =           0.0000
          EXT-INFLOW =  9723600000.0000            EXT-INFLOW =         185.0000
         EXT-OUTFLOW =       1.7046E-02           EXT-OUTFLOW =           0.0000
             STORAGE =           0.0000               STORAGE =           0.0000
            FROM-MVR = 11923275033.7451              FROM-MVR =         233.3366
              TO-MVR =           0.0000                TO-MVR =           0.0000

            TOTAL IN = 21979198044.1151              TOTAL IN =         426.2613

          OUT:                                     OUT:
          ----                                     ----
                 GWF =   621066508.5809                   GWF =          11.0947
            RAINFALL =           0.0000              RAINFALL =           0.0000
         EVAPORATION =           0.0000           EVAPORATION =           0.0000
              RUNOFF =           0.0000                RUNOFF =           0.0000
          EXT-INFLOW =           0.0000            EXT-INFLOW =           0.0000
         EXT-OUTFLOW = 10435042018.6618           EXT-OUTFLOW =         204.9124
             STORAGE =           0.0000               STORAGE =           0.0000
            FROM-MVR =           0.0000              FROM-MVR =           0.0000
              TO-MVR = 10923089516.8723                TO-MVR =         210.2542

           TOTAL OUT = 21979198044.1151             TOTAL OUT =         426.2613

            IN - OUT =       1.1444E-05              IN - OUT =           0.0000

 PERCENT DISCREPANCY =           0.00     PERCENT DISCREPANCY =           0.00



  LAK-1 BUDGET FOR ENTIRE MODEL AT END OF TIME STEP   15, STRESS PERIOD  20
  ------------------------------------------------------------------------------

     CUMULATIVE LAK-1      L**3       RATES FOR THIS TIME STEP      L**3/T
     ------------------                 ------------------------

           IN:                                      IN:
           ---                                      ---
                 GWF =   419738685.2912                   GWF =          10.1569
            RAINFALL =   452016000.0000              RAINFALL =           8.6000
         EVAPORATION =           0.0000           EVAPORATION =           0.0000
              RUNOFF =   236520000.0000                RUNOFF =           4.5000
          EXT-INFLOW =           0.0000            EXT-INFLOW =           0.0000
          WITHDRAWAL =           0.0000            WITHDRAWAL =           0.0000
         EXT-OUTFLOW =           1.4865           EXT-OUTFLOW =           0.0000
             STORAGE =      334885.2259               STORAGE =           0.0000
            CONSTANT =           0.0000              CONSTANT =           0.0000
            FROM-MVR = 10923089516.8723              FROM-MVR =         210.2542
              TO-MVR =           0.0000                TO-MVR =           0.0000

            TOTAL IN = 12031699088.8759              TOTAL IN =         233.5110

          OUT:                                     OUT:
          ----                                     ----
                 GWF =   207337878.4058                   GWF =           3.4423
            RAINFALL =           0.0000              RAINFALL =           0.0000
         EVAPORATION =   226008000.0000           EVAPORATION =           4.3000
              RUNOFF =           0.0000                RUNOFF =           0.0000
          EXT-INFLOW =           0.0000            EXT-INFLOW =           0.0000
          WITHDRAWAL =     6307200.0000            WITHDRAWAL =           0.1200
         EXT-OUTFLOW =           4.3347           EXT-OUTFLOW =       2.0763E-09
             STORAGE =     8651025.2103               STORAGE =           0.8353
            CONSTANT =           0.0000              CONSTANT =           0.0000
            FROM-MVR =           0.0000              FROM-MVR =           0.0000
              TO-MVR = 11583394980.9610                TO-MVR =         224.8135

           TOTAL OUT = 12031699088.9117             TOTAL OUT =         233.5110

            IN - OUT =      -3.5809E-02              IN - OUT =       3.3212E-07

 PERCENT DISCREPANCY =          -0.00     PERCENT DISCREPANCY =           0.00



  UZF-1 BUDGET FOR ENTIRE MODEL AT END OF TIME STEP   15, STRESS PERIOD  20
  ------------------------------------------------------------------------------

     CUMULATIVE UZF-1      L**3       RATES FOR THIS TIME STEP      L**3/T
     ------------------                 ------------------------

           IN:                                      IN:
           ---                                      ---
                 GWF =           0.0000                   GWF =           0.0000
        INFILTRATION =  5903973871.2000          INFILTRATION =          38.2500
             REJ-INF =           0.0000               REJ-INF =           0.0000
                UZET =           0.0000                  UZET =           0.0000
             STORAGE =  2574443487.8708               STORAGE =         188.0282
            FROM-MVR =   201042000.0000              FROM-MVR =           0.0000
      REJ-INF-TO-MVR =           0.0000        REJ-INF-TO-MVR =           0.0000

            TOTAL IN =  8679459359.0708              TOTAL IN =         226.2782

          OUT:                                     OUT:
          ----                                     ----
                 GWF =  1899125774.7799                   GWF =         172.3731
        INFILTRATION =           0.0000          INFILTRATION =           0.0000
             REJ-INF =          64.5557               REJ-INF =       2.3110E-08
                UZET =  1107366256.8333                  UZET =          21.9669
             STORAGE =  5650925487.6936               STORAGE =          31.6882
            FROM-MVR =           0.0000              FROM-MVR =           0.0000
      REJ-INF-TO-MVR =    22041682.2235        REJ-INF-TO-MVR =           0.2500

           TOTAL OUT =  8679459266.0860             TOTAL OUT =         226.2782

            IN - OUT =          92.9847              IN - OUT =       7.4190E-06

 PERCENT DISCREPANCY =           0.00     PERCENT DISCREPANCY =           0.00



  WATER MOVER BUDGET FOR ENTIRE MODEL AT END OF TIME STEP   15, STRESS PERIOD  20
  ------------------------------------------------------------------------------

     CUMULATIVE WATER MOVER      L**3       RATES FOR THIS TIME STEP      L**3/T
     ------------------                 ------------------------

           IN:                                      IN:
           ---                                      ---
               UZF-1 =   339880052.7842                 UZF-1 =           8.5231
               SFR-1 = 10923089516.8723                 SFR-1 =         210.2542
               LAK-1 = 11583394980.9610                 LAK-1 =         224.8135
               WEL-1 =   201042000.0000                 WEL-1 =           0.0000

            TOTAL IN = 23047406550.6174              TOTAL IN =         443.5907

          OUT:                                     OUT:
          ----                                     ----
               UZF-1 =   201042000.0000                 UZF-1 =           0.0000
               SFR-1 = 11923275033.7451                 SFR-1 =         233.3366
               LAK-1 = 10923089516.8723                 LAK-1 =         210.2542
               WEL-1 =           0.0000                 WEL-1 =           0.0000

           TOTAL OUT = 23047406550.6174             TOTAL OUT =         443.5907

            IN - OUT =       3.8147E-06              IN - OUT =           0.0000

 PERCENT DISCREPANCY =           0.00     PERCENT DISCREPANCY =           0.00



  VOLUME BUDGET FOR ENTIRE MODEL AT END OF TIME STEP   15, STRESS PERIOD  20
  ---------------------------------------------------------------------------------------------------

     CUMULATIVE VOLUME      L**3       RATES FOR THIS TIME STEP      L**3/T          PACKAGE NAME    
     ------------------                 ------------------------                     ----------------

           IN:                                      IN:
           ---                                      ---
              STO-SS =      886156.8192                STO-SS =       8.0207E-04     STORAGE                          
              STO-SY =   276357745.8133                STO-SY =           3.0879     STORAGE                          
                 WEL =           0.0000                   WEL =           0.0000     WEL-1                            
          WEL-TO-MVR =           0.0000            WEL-TO-MVR =           0.0000     WEL-1                            
                 GHB =    36174322.3893                   GHB =           0.6343     GHB_0                            
                 SFR =   621066507.1513                   SFR =          11.0947     SFR-1                            
                 LAK =   207337878.4058                   LAK =           3.4423     LAK-1                            
           UZF-GWRCH =  1899125774.7799             UZF-GWRCH =         172.3731     UZF-1                            
             UZF-GWD =           0.0000               UZF-GWD =           0.0000     UZF-1                            
      UZF-GWD TO-MVR =           0.0000        UZF-GWD TO-MVR =           0.0000     UZF-1                            
            UZF-GWET =           0.0000              UZF-GWET =           0.0000     UZF-1                            

            TOTAL IN =  3040948385.3588              TOTAL IN =         190.6331

          OUT:                                     OUT:
          ----                                     ----
              STO-SS =     8724865.5099                STO-SS =           0.9454     STORAGE                          
              STO-SY =  1712778274.4120                STO-SY =         162.3085     STORAGE                          
                 WEL =           0.0000                   WEL =           0.0000     WEL-1                            
          WEL-TO-MVR =   201042000.0000            WEL-TO-MVR =           0.0000     WEL-1                            
                 GHB =    17985362.6342                   GHB =           0.3424     GHB_0                            
                 SFR =   332323333.2646                   SFR =           7.9247     SFR-1                            
                 LAK =   419738685.2912                   LAK =          10.1569     LAK-1                            
           UZF-GWRCH =           0.0000             UZF-GWRCH =           0.0000     UZF-1                            
             UZF-GWD =         117.2010               UZF-GWD =       3.4193E-07     UZF-1                            
      UZF-GWD TO-MVR =   317838370.5607        UZF-GWD TO-MVR =           8.2731     UZF-1                            
            UZF-GWET =    30495613.2451              UZF-GWET =           0.6813     UZF-1                            

           TOTAL OUT =  3040926622.1186             TOTAL OUT =         190.6322

            IN - OUT =       21763.2402              IN - OUT =       8.6886E-04

 PERCENT DISCREPANCY =           0.00     PERCENT DISCREPANCY =           0.00




         TIME SUMMARY AT END OF TIME STEP   15 IN STRESS PERIOD   20
                    SECONDS     MINUTES      HOURS       DAYS        YEARS
                    -----------------------------------------------------------
   TIME STEP LENGTH 1.75200E+05  2920.0      48.667      2.0278     5.55175E-03
 STRESS PERIOD TIME 2.62800E+06  43800.      730.00      30.417     8.32763E-02
         TOTAL TIME 5.25600E+07 8.76000E+05  14600.      608.33      1.6655    


end timestep


start timestep kper="21" kstp="1" mode="normal"


 OUTPUT CONTROL FOR STRESS PERIOD 21 IS REPEATED USING SETTINGS FROM A PREVIOUS STRESS PERIOD.


 STRESS PERIOD 21 IS TRANSIENT


 REUSING MVRS FROM LAST STRESS PERIOD

 REUSING SFRS FROM LAST STRESS PERIOD

 REUSING LAKS FROM LAST STRESS PERIOD

end timestep


start timestep kper="21" kstp="2" mode="normal"


end timestep


start timestep kper="21" kstp="3" mode="normal"


end timestep


start timestep kper="21" kstp="4" mode="normal"


end timestep


start timestep kper="21" kstp="5" mode="normal"


end timestep


start timestep kper="21" kstp="6" mode="normal"


end timestep


start timestep kper="21" kstp="7" mode="normal"


end timestep


start timestep kper="21" kstp="8" mode="normal"


end timestep


start timestep kper="21" kstp="9" mode="normal"


end timestep


start timestep kper="21" kstp="10" mode="normal"


end timestep


start timestep kper="21" kstp="11" mode="normal"


end timestep


start timestep kper="21" kstp="12" mode="normal"


end timestep


start timestep kper="21" kstp="13" mode="normal"


end timestep


start timestep kper="21" kstp="14" mode="normal"


end timestep


start timestep kper="21" kstp="15" mode="normal"

 UBDSV1 SAVING           STO-SS ON UNIT   1025 AT TIME STEP     15, STRESS PERIOD     21
 UBDSV1 SAVING           STO-SY ON UNIT   1025 AT TIME STEP     15, STRESS PERIOD     21
 UBDSV1 SAVING     FLOW-JA-FACE ON UNIT   1025 AT TIME STEP     15, STRESS PERIOD     21
 UBDSV06 SAVING       DATA-SPDIS IN MODEL E13              PACKAGE NPF             CONNECTED TO MODEL E13              PACKAGE NPF              ON UNIT   1025 AT TIME STEP     15, STRESS PERIOD     21
 UBDSV06 SAVING              WEL IN MODEL E13              PACKAGE E13             CONNECTED TO MODEL E13              PACKAGE WEL-1            ON UNIT   1025 AT TIME STEP     15, STRESS PERIOD     21
 UBDSV06 SAVING       WEL-TO-MVR IN MODEL E13              PACKAGE E13             CONNECTED TO MODEL E13              PACKAGE WEL-1            ON UNIT   1025 AT TIME STEP     15, STRESS PERIOD     21
 UBDSV06 SAVING              GHB IN MODEL E13              PACKAGE E13             CONNECTED TO MODEL E13              PACKAGE GHB_0            ON UNIT   1025 AT TIME STEP     15, STRESS PERIOD     21
 UBDSV06 SAVING              SFR IN MODEL E13              PACKAGE E13             CONNECTED TO MODEL E13              PACKAGE SFR-1            ON UNIT   1025 AT TIME STEP     15, STRESS PERIOD     21
 UBDSV06 SAVING              LAK IN MODEL E13              PACKAGE E13             CONNECTED TO MODEL E13              PACKAGE LAK-1            ON UNIT   1025 AT TIME STEP     15, STRESS PERIOD     21
 UBDSV06 SAVING        UZF-GWRCH IN MODEL E13              PACKAGE E13             CONNECTED TO MODEL E13              PACKAGE UZF-1            ON UNIT   1025 AT TIME STEP     15, STRESS PERIOD     21
 UBDSV06 SAVING          UZF-GWD IN MODEL E13              PACKAGE E13             CONNECTED TO MODEL E13              PACKAGE UZF-1            ON UNIT   1025 AT TIME STEP     15, STRESS PERIOD     21
 UBDSV06 SAVING   UZF-GWD TO-MVR IN MODEL E13              PACKAGE E13             CONNECTED TO MODEL E13              PACKAGE UZF-1            ON UNIT   1025 AT TIME STEP     15, STRESS PERIOD     21
 UBDSV06 SAVING         UZF-GWET IN MODEL E13              PACKAGE E13             CONNECTED TO MODEL E13              PACKAGE UZF-1            ON UNIT   1025 AT TIME STEP     15, STRESS PERIOD     21
 UBDSV06 SAVING     FLOW-JA-FACE IN MODEL E13              PACKAGE SFR-1           CONNECTED TO MODEL E13              PACKAGE SFR-1            ON UNIT   1017 AT TIME STEP     15, STRESS PERIOD     21
 UBDSV06 SAVING              GWF IN MODEL E13              PACKAGE SFR-1           CONNECTED TO MODEL E13              PACKAGE E13              ON UNIT   1017 AT TIME STEP     15, STRESS PERIOD     21
 UBDSV06 SAVING         RAINFALL IN MODEL E13              PACKAGE SFR-1           CONNECTED TO MODEL E13              PACKAGE SFR-1            ON UNIT   1017 AT TIME STEP     15, STRESS PERIOD     21
 UBDSV06 SAVING      EVAPORATION IN MODEL E13              PACKAGE SFR-1           CONNECTED TO MODEL E13              PACKAGE SFR-1            ON UNIT   1017 AT TIME STEP     15, STRESS PERIOD     21
 UBDSV06 SAVING           RUNOFF IN MODEL E13              PACKAGE SFR-1           CONNECTED TO MODEL E13              PACKAGE SFR-1            ON UNIT   1017 AT TIME STEP     15, STRESS PERIOD     21
 UBDSV06 SAVING       EXT-INFLOW IN MODEL E13              PACKAGE SFR-1           CONNECTED TO MODEL E13              PACKAGE SFR-1            ON UNIT   1017 AT TIME STEP     15, STRESS PERIOD     21
 UBDSV06 SAVING      EXT-OUTFLOW IN MODEL E13              PACKAGE SFR-1           CONNECTED TO MODEL E13              PACKAGE SFR-1            ON UNIT   1017 AT TIME STEP     15, STRESS PERIOD     21
 UBDSV06 SAVING          STORAGE IN MODEL E13              PACKAGE SFR-1           CONNECTED TO MODEL E13              PACKAGE SFR-1            ON UNIT   1017 AT TIME STEP     15, STRESS PERIOD     21
 UBDSV06 SAVING         FROM-MVR IN MODEL E13              PACKAGE SFR-1           CONNECTED TO MODEL E13              PACKAGE SFR-1            ON UNIT   1017 AT TIME STEP     15, STRESS PERIOD     21
 UBDSV06 SAVING           TO-MVR IN MODEL E13              PACKAGE SFR-1           CONNECTED TO MODEL E13              PACKAGE SFR-1            ON UNIT   1017 AT TIME STEP     15, STRESS PERIOD     21
 UBDSV06 SAVING              GWF IN MODEL E13              PACKAGE LAK-1           CONNECTED TO MODEL E13              PACKAGE E13              ON UNIT   1019 AT TIME STEP     15, STRESS PERIOD     21
 UBDSV06 SAVING         RAINFALL IN MODEL E13              PACKAGE LAK-1           CONNECTED TO MODEL E13              PACKAGE LAK-1            ON UNIT   1019 AT TIME STEP     15, STRESS PERIOD     21
 UBDSV06 SAVING      EVAPORATION IN MODEL E13              PACKAGE LAK-1           CONNECTED TO MODEL E13              PACKAGE LAK-1            ON UNIT   1019 AT TIME STEP     15, STRESS PERIOD     21
 UBDSV06 SAVING           RUNOFF IN MODEL E13              PACKAGE LAK-1           CONNECTED TO MODEL E13              PACKAGE LAK-1            ON UNIT   1019 AT TIME STEP     15, STRESS PERIOD     21
 UBDSV06 SAVING       EXT-INFLOW IN MODEL E13              PACKAGE LAK-1           CONNECTED TO MODEL E13              PACKAGE LAK-1            ON UNIT   1019 AT TIME STEP     15, STRESS PERIOD     21
 UBDSV06 SAVING       WITHDRAWAL IN MODEL E13              PACKAGE LAK-1           CONNECTED TO MODEL E13              PACKAGE LAK-1            ON UNIT   1019 AT TIME STEP     15, STRESS PERIOD     21
 UBDSV06 SAVING      EXT-OUTFLOW IN MODEL E13              PACKAGE LAK-1           CONNECTED TO MODEL E13              PACKAGE LAK-1            ON UNIT   1019 AT TIME STEP     15, STRESS PERIOD     21
 UBDSV06 SAVING          STORAGE IN MODEL E13              PACKAGE LAK-1           CONNECTED TO MODEL E13              PACKAGE LAK-1            ON UNIT   1019 AT TIME STEP     15, STRESS PERIOD     21
 UBDSV06 SAVING         CONSTANT IN MODEL E13              PACKAGE LAK-1           CONNECTED TO MODEL E13              PACKAGE LAK-1            ON UNIT   1019 AT TIME STEP     15, STRESS PERIOD     21
 UBDSV06 SAVING         FROM-MVR IN MODEL E13              PACKAGE LAK-1           CONNECTED TO MODEL E13              PACKAGE LAK-1            ON UNIT   1019 AT TIME STEP     15, STRESS PERIOD     21
 UBDSV06 SAVING           TO-MVR IN MODEL E13              PACKAGE LAK-1           CONNECTED TO MODEL E13              PACKAGE LAK-1            ON UNIT   1019 AT TIME STEP     15, STRESS PERIOD     21
 UBDSV06 SAVING     FLOW-JA-FACE IN MODEL E13              PACKAGE UZF-1           CONNECTED TO MODEL E13              PACKAGE UZF-1            ON UNIT   1021 AT TIME STEP     15, STRESS PERIOD     21
 UBDSV06 SAVING              GWF IN MODEL E13              PACKAGE UZF-1           CONNECTED TO MODEL E13              PACKAGE E13              ON UNIT   1021 AT TIME STEP     15, STRESS PERIOD     21
 UBDSV06 SAVING     INFILTRATION IN MODEL E13              PACKAGE UZF-1           CONNECTED TO MODEL E13              PACKAGE UZF-1            ON UNIT   1021 AT TIME STEP     15, STRESS PERIOD     21
 UBDSV06 SAVING          REJ-INF IN MODEL E13              PACKAGE UZF-1           CONNECTED TO MODEL E13              PACKAGE UZF-1            ON UNIT   1021 AT TIME STEP     15, STRESS PERIOD     21
 UBDSV06 SAVING             UZET IN MODEL E13              PACKAGE UZF-1           CONNECTED TO MODEL E13              PACKAGE UZF-1            ON UNIT   1021 AT TIME STEP     15, STRESS PERIOD     21
 UBDSV06 SAVING          STORAGE IN MODEL E13              PACKAGE UZF-1           CONNECTED TO MODEL E13              PACKAGE UZF-1            ON UNIT   1021 AT TIME STEP     15, STRESS PERIOD     21
 UBDSV06 SAVING         FROM-MVR IN MODEL E13              PACKAGE UZF-1           CONNECTED TO MODEL E13              PACKAGE UZF-1            ON UNIT   1021 AT TIME STEP     15, STRESS PERIOD     21
 UBDSV06 SAVING   REJ-INF-TO-MVR IN MODEL E13              PACKAGE UZF-1           CONNECTED TO MODEL E13              PACKAGE UZF-1            ON UNIT   1021 AT TIME STEP     15, STRESS PERIOD     21
 UBDSV06 SAVING       MOVER-FLOW IN MODEL E13              PACKAGE UZF-1           CONNECTED TO MODEL E13              PACKAGE UZF-1            ON UNIT   1023 AT TIME STEP     15, STRESS PERIOD     21
 UBDSV06 SAVING       MOVER-FLOW IN MODEL E13              PACKAGE UZF-1           CONNECTED TO MODEL E13              PACKAGE SFR-1            ON UNIT   1023 AT TIME STEP     15, STRESS PERIOD     21
 UBDSV06 SAVING       MOVER-FLOW IN MODEL E13              PACKAGE UZF-1           CONNECTED TO MODEL E13              PACKAGE LAK-1            ON UNIT   1023 AT TIME STEP     15, STRESS PERIOD     21
 UBDSV06 SAVING       MOVER-FLOW IN MODEL E13              PACKAGE UZF-1           CONNECTED TO MODEL E13              PACKAGE WEL-1            ON UNIT   1023 AT TIME STEP     15, STRESS PERIOD     21
 UBDSV06 SAVING       MOVER-FLOW IN MODEL E13              PACKAGE SFR-1           CONNECTED TO MODEL E13              PACKAGE UZF-1            ON UNIT   1023 AT TIME STEP     15, STRESS PERIOD     21
 UBDSV06 SAVING       MOVER-FLOW IN MODEL E13              PACKAGE SFR-1           CONNECTED TO MODEL E13              PACKAGE SFR-1            ON UNIT   1023 AT TIME STEP     15, STRESS PERIOD     21
 UBDSV06 SAVING       MOVER-FLOW IN MODEL E13              PACKAGE SFR-1           CONNECTED TO MODEL E13              PACKAGE LAK-1            ON UNIT   1023 AT TIME STEP     15, STRESS PERIOD     21
 UBDSV06 SAVING       MOVER-FLOW IN MODEL E13              PACKAGE SFR-1           CONNECTED TO MODEL E13              PACKAGE WEL-1            ON UNIT   1023 AT TIME STEP     15, STRESS PERIOD     21
 UBDSV06 SAVING       MOVER-FLOW IN MODEL E13              PACKAGE LAK-1           CONNECTED TO MODEL E13              PACKAGE UZF-1            ON UNIT   1023 AT TIME STEP     15, STRESS PERIOD     21
 UBDSV06 SAVING       MOVER-FLOW IN MODEL E13              PACKAGE LAK-1           CONNECTED TO MODEL E13              PACKAGE SFR-1            ON UNIT   1023 AT TIME STEP     15, STRESS PERIOD     21
 UBDSV06 SAVING       MOVER-FLOW IN MODEL E13              PACKAGE LAK-1           CONNECTED TO MODEL E13              PACKAGE LAK-1            ON UNIT   1023 AT TIME STEP     15, STRESS PERIOD     21
 UBDSV06 SAVING       MOVER-FLOW IN MODEL E13              PACKAGE LAK-1           CONNECTED TO MODEL E13              PACKAGE WEL-1            ON UNIT   1023 AT TIME STEP     15, STRESS PERIOD     21
 UBDSV06 SAVING       MOVER-FLOW IN MODEL E13              PACKAGE WEL-1           CONNECTED TO MODEL E13              PACKAGE UZF-1            ON UNIT   1023 AT TIME STEP     15, STRESS PERIOD     21
 UBDSV06 SAVING       MOVER-FLOW IN MODEL E13              PACKAGE WEL-1           CONNECTED TO MODEL E13              PACKAGE SFR-1            ON UNIT   1023 AT TIME STEP     15, STRESS PERIOD     21
 UBDSV06 SAVING       MOVER-FLOW IN MODEL E13              PACKAGE WEL-1           CONNECTED TO MODEL E13              PACKAGE LAK-1            ON UNIT   1023 AT TIME STEP     15, STRESS PERIOD     21
 UBDSV06 SAVING       MOVER-FLOW IN MODEL E13              PACKAGE WEL-1           CONNECTED TO MODEL E13              PACKAGE WEL-1            ON UNIT   1023 AT TIME STEP     15, STRESS PERIOD     21

 WEL PACKAGE (WEL-1) FLOW RATES   PERIOD     21   STEP       15
 -----------------------------------------------
   NUMBER   CELLID                    RATE      
 -----------------------------------------------
     1      (1,6,4)               0.0000000     
     2      (1,6,5)               0.0000000     
     3      (1,7,4)               0.0000000     
     4      (1,7,5)               0.0000000     
     5      (1,8,4)               0.0000000     
     6      (1,8,5)               0.0000000     
     7      (1,9,4)               0.0000000     
     8      (1,9,5)               0.0000000     
     9      (1,10,4)              0.0000000     
     10     (1,10,5)              0.0000000     
 -----------------------------------------------




 WEL PACKAGE (WEL-1) FLOW RATES TO-MVR   PERIOD     21   STEP       15
 -----------------------------------------------
   NUMBER   CELLID                    RATE      
 -----------------------------------------------
     1      (1,6,4)               0.0000000     
     2      (1,6,5)               0.0000000     
     3      (1,7,4)               0.0000000     
     4      (1,7,5)               0.0000000     
     5      (1,8,4)               0.0000000     
     6      (1,8,5)               0.0000000     
     7      (1,9,4)               0.0000000     
     8      (1,9,5)               0.0000000     
     9      (1,10,4)              0.0000000     
     10     (1,10,5)              0.0000000     
 -----------------------------------------------




 SFR PACKAGE (SFR-1) FLOW RATES   PERIOD     21   STEP       15
 ----------------------------------------------------------------------------------------
   NUMBER   CELLID                    RATE       NAME                                    
 ----------------------------------------------------------------------------------------
     1      (1,1,1)               0.22868377     ALLREACHES                              
     2      (1,2,2)               0.35499870     ALLREACHES                              
     3      (1,3,3)               0.30357347     ALLREACHES                              
     4      (1,3,4)               0.28021936     ALLREACHES                              
     5      (1,4,5)               0.29960805     ALLREACHES                              
     6      (1,5,6)               0.22987955     ALLREACHES                              
     7      (1,6,6)               0.22936563     ALLREACHES                              
     8      (1,7,6)               0.22884928     ALLREACHES                              
     9      (1,8,6)               0.22833044     ALLREACHES                              
     10     (1,3,5)               2.12214188E-02 ALLREACHES                              
     11     (1,3,6)               1.99133007E-02 ALLREACHES                              
     12     (1,3,7)               1.67956407E-02 ALLREACHES                              
     13     (1,4,8)               2.07205450E-02 ALLREACHES                              
     14     (1,5,8)               1.57905563E-02 ALLREACHES                              
     15     (1,6,8)               5.93648362E-03 ALLREACHES                              
     16     (1,5,10)              9.09197693E-02 ALLREACHES                              
     17     (1,5,9)               0.18157734     ALLREACHES                              
     18     (1,6,8)               0.12689514     ALLREACHES                              
     19     (1,6,8)               0.17138468     ALLREACHES                              
     20     (1,7,7)               0.21384773     ALLREACHES                              
     21     (1,8,7)               0.14943953     ALLREACHES                              
     22     (1,8,6)               0.10661428     ALLREACHES                              
     23     (1,9,6)               0.24837387     ALLREACHES                              
     24     (1,12,7)              2.56000503E-02 ALLREACHES                              
     25     (1,13,7)              2.81560077E-02 ALLREACHES                              
     26     (1,14,9)              2.6922030      ALLREACHES                              
     27     (1,13,8)              2.6824902      ALLREACHES                              
     28     (1,13,7)              1.8914755      ALLREACHES                              
     29     (1,13,6)             -3.1981090      ALLREACHES                              
     30     (1,13,2)             -3.3922582      ALLREACHES                              
     31     (1,13,1)             -1.3102687      ALLREACHES                              
 ----------------------------------------------------------------------------------------




 LAK PACKAGE (LAK-1) FLOW RATES   PERIOD     21   STEP       15
 -----------------------------------------------
   NUMBER   CELLID                    RATE      
 -----------------------------------------------
     1      (1,9,7)               7.77294847E-03
     2      (1,10,6)              9.89719563E-03
     3      (2,10,7)              0.81840763    
     4      (1,9,8)               5.16039643E-03
     5      (1,10,9)              1.06225558E-04
     6      (2,10,8)              0.78239484    
     7      (1,11,6)              1.07151101E-02
     8      (1,12,7)              9.77071632E-03
     9      (2,11,7)              0.81024749    
     10     (1,11,9)              2.63310794E-03
     11     (1,12,8)              9.35589090E-03
     12     (2,11,8)              0.77811904    
     13     (1,10,3)             -2.70640848E-03
     14     (1,11,2)             -1.73020236E-03
     15     (2,11,3)             -0.83988136    
     16     (1,10,4)             -1.87912705E-03
     17     (2,11,4)             -0.85368358    
     18     (1,10,5)             -4.29564217E-03
     19     (1,11,6)             -4.96055978E-03
     20     (2,11,5)             -0.87299281    
     21     (1,12,2)             -5.30330688E-03
     22     (2,12,3)             -0.81127708    
     23     (2,12,4)             -0.84659999    
     24     (1,12,6)             -6.78931778E-03
     25     (2,12,5)             -0.87726111    
     26     (1,13,2)             -1.26911079E-03
     27     (2,13,3)             -0.81226338    
     28     (2,13,4)             -0.86111696    
     29     (1,13,6)             -7.51517770E-03
     30     (2,13,5)             -0.89714918    
     31     (1,14,2)             -5.99184226E-03
     32     (1,15,3)              0.0000000     
     33     (2,14,3)             -0.85322985    
     34     (1,15,4)              0.0000000     
     35     (2,14,4)             -0.89596523    
     36     (1,14,6)             -6.63677845E-03
     37     (1,15,5)              0.0000000     
     38     (2,14,5)             -0.92986130    
 -----------------------------------------------




 SFR-1 PACKAGE - SUMMARY OF FLOWS FOR EACH CONTROL VOLUME   PERIOD     21   STEP       15
 --------------------------------------------------------------------------------------------------------------------------------------------------------------------------------------------------------
                                                                                                                                                                                               PERCENT   
   NUMBER   CELLID                  INFLOW      OUTFLOW        GWF        RAINFALL   EVAPORATION     RUNOFF     EXT INFLOW  EXT OUTFLOW    STORAGE      FROM MVR      TO MVR      IN - OUT    DIFFERENCE 
 --------------------------------------------------------------------------------------------------------------------------------------------------------------------------------------------------------
     1      (1,1,1)               0.0000      -24.771      -0.22868      0.0000       0.0000       0.0000       25.000       0.0000       0.0000       0.0000       0.0000       0.0000       0.0000     
     2      (1,2,2)               24.771      -24.416      -0.35500      0.0000       0.0000       0.0000       0.0000       0.0000       0.0000       0.0000       0.0000       0.0000       0.0000     
     3      (1,3,3)               24.416      -24.113      -0.30357      0.0000       0.0000       0.0000       0.0000       0.0000       0.0000       0.0000       0.0000       0.0000       0.0000     
     4      (1,3,4)               24.113      -23.833      -0.28022      0.0000       0.0000       0.0000       0.0000       0.0000       0.0000       0.0000       0.0000       0.0000       0.0000     
     5      (1,4,5)               13.833      -13.533      -0.29961      0.0000       0.0000       0.0000       0.0000       0.0000       0.0000       0.0000       0.0000       0.0000       0.0000     
     6      (1,5,6)               13.533      -13.303      -0.22988      0.0000       0.0000       0.0000       0.0000       0.0000       0.0000       0.0000       0.0000       0.0000       0.0000     
     7      (1,6,6)               13.303      -13.074      -0.22937      0.0000       0.0000       0.0000       0.0000       0.0000       0.0000       0.0000       0.0000       0.0000       0.0000     
     8      (1,7,6)               13.074      -12.845      -0.22885      0.0000       0.0000       0.0000       0.0000       0.0000       0.0000       0.0000       0.0000       0.0000       0.0000     
     9      (1,8,6)               12.845      -12.616      -0.22833      0.0000       0.0000       0.0000       0.0000       0.0000       0.0000       0.0000       0.0000       0.0000       0.0000     
     10     (1,3,5)               10.000      -9.9788      -2.12214E-02  0.0000       0.0000       0.0000       0.0000       0.0000       0.0000       0.0000       0.0000       0.0000       0.0000     
     11     (1,3,6)               9.9788      -9.9589      -1.99133E-02  0.0000       0.0000       0.0000       0.0000       0.0000       0.0000       0.0000       0.0000       0.0000       0.0000     
     12     (1,3,7)               9.9589      -9.9421      -1.67956E-02  0.0000       0.0000       0.0000       0.0000       0.0000       0.0000       0.0000       0.0000       0.0000       0.0000     
     13     (1,4,8)               9.9421      -9.9213      -2.07205E-02  0.0000       0.0000       0.0000       0.0000       0.0000       0.0000       0.0000       0.0000       0.0000       0.0000     
     14     (1,5,8)               9.9213      -9.9056      -1.57906E-02  0.0000       0.0000       0.0000       0.0000       0.0000       0.0000       0.0000       0.0000       0.0000       0.0000     
     15     (1,6,8)               9.9056      -9.8996      -5.93648E-03  0.0000       0.0000       0.0000       0.0000       0.0000       0.0000       0.0000       0.0000       0.0000       0.0000     
     16     (1,5,10)              0.0000      -9.9091      -9.09198E-02  0.0000       0.0000       0.0000       10.000       0.0000       0.0000       0.0000       0.0000       0.0000       0.0000     
     17     (1,5,9)               9.9091      -9.7275      -0.18158      0.0000       0.0000       0.0000       0.0000       0.0000       0.0000       0.0000       0.0000       0.0000       0.0000     
     18     (1,6,8)               9.7275      -9.6006      -0.12690      0.0000       0.0000       0.0000       0.0000       0.0000       0.0000       0.0000       0.0000       0.0000       0.0000     
     19     (1,6,8)               19.500      -19.329      -0.17138      0.0000       0.0000       0.0000       0.0000       0.0000       0.0000       0.0000       0.0000       0.0000       0.0000     
     20     (1,7,7)               19.329      -19.115      -0.21385      0.0000       0.0000       0.0000       0.0000       0.0000       0.0000       0.0000       0.0000       0.0000       0.0000     
     21     (1,8,7)               19.115      -18.966      -0.14944      0.0000       0.0000       0.0000       0.0000       0.0000       0.0000       0.0000       0.0000       0.0000       0.0000     
     22     (1,8,6)               18.966      -18.859      -0.10661      0.0000       0.0000       0.0000       0.0000       0.0000       0.0000       0.0000       0.0000       0.0000       0.0000     
     23     (1,9,6)               31.475       0.0000      -0.24837      0.0000       0.0000       0.0000       0.0000       0.0000       0.0000       0.0000      -31.227       0.0000       0.0000     
     24     (1,12,7)              0.0000      -33.301      -2.56001E-02  0.0000       0.0000       0.0000       0.0000       0.0000       0.0000       33.326       0.0000       0.0000       0.0000     
     25     (1,13,7)              33.301      -33.272      -2.81560E-02  0.0000       0.0000       0.0000       0.0000       0.0000       0.0000       0.0000       0.0000       0.0000       0.0000     
     26     (1,14,9)              0.0000      -147.31      -2.6922       0.0000       0.0000       0.0000       150.00       0.0000       0.0000       0.0000       0.0000       0.0000       0.0000     
     27     (1,13,8)              147.31      -144.63      -2.6825       0.0000       0.0000       0.0000       0.0000       0.0000       0.0000       0.0000       0.0000       0.0000       0.0000     
     28     (1,13,7)              144.63      -142.73      -1.8915       0.0000       0.0000       0.0000       0.0000       0.0000       0.0000       0.0000       0.0000       0.0000       0.0000     
     29     (1,13,6)              176.01       0.0000       3.1981       0.0000       0.0000       0.0000       0.0000      -5.90833E-09  0.0000       0.0000      -179.20       0.0000       0.0000     
     30     (1,13,2)              0.0000      -197.14       3.3923       0.0000       0.0000       0.0000       0.0000       0.0000       0.0000       193.74       0.0000       0.0000       0.0000     
     31     (1,13,1)              197.14       0.0000       1.3103       0.0000       0.0000       0.0000       0.0000      -206.19       0.0000       7.7431       0.0000       0.0000       0.0000     
 --------------------------------------------------------------------------------------------------------------------------------------------------------------------------------------------------------



 LAK-1 PACKAGE - SUMMARY OF FLOWS FOR EACH CONTROL VOLUME   PERIOD     21   STEP       15
 -----------------------------------------------------------------------------------------------------------------------------------------------------------------------------------
                                                                                                                                                                          PERCENT   
   NUMBER       GWF        RAINFALL   EVAPORATION     RUNOFF     EXT INFLOW   WITHDRAWAL  EXT OUTFLOW    STORAGE      CONSTANT     FROM MVR      TO MVR      IN - OUT    DIFFERENCE 
 -----------------------------------------------------------------------------------------------------------------------------------------------------------------------------------
     1      -3.2446       5.0000      -1.0000       1.5000       0.0000       0.0000       0.0000      -0.15638      0.0000       31.227      -33.326       2.19163E-08  5.80918E-08
     2       10.400       3.6000      -3.3000       3.0000       0.0000      -0.12000     -1.77579E-10 -0.25696      0.0000       179.20      -192.53      -1.50105E-08 -7.65042E-09
 -----------------------------------------------------------------------------------------------------------------------------------------------------------------------------------



 WATER MOVER PACKAGE (MVR) FLOW RATES   PERIOD     21   STEP       15
 --------------------------------------------------------------------------------------------------------------------------
                                               PROVIDER  AVAILABLE   PROVIDED                                     RECEIVER 
   NUMBER           PROVIDER LOCATION             ID        RATE       RATE            RECEIVER LOCATION             ID    
 --------------------------------------------------------------------------------------------------------------------------
     1                  E13/SFR-1                 23      31.2       31.2                  E13/LAK-1                 1     
     2                  E13/LAK-1                 1       33.3       33.3                  E13/SFR-1                 24    
     3                  E13/SFR-1                 29      179.       179.                  E13/LAK-1                 2     
     4                  E13/LAK-1                 2       193.       193.                  E13/SFR-1                 30    
     5                  E13/UZF-1                 1       0.00       0.00                  E13/SFR-1                 1     
     6                  E13/UZF-1                 2       0.00       0.00                  E13/SFR-1                 2     
     7                  E13/UZF-1                 3       0.00       0.00                  E13/SFR-1                 2     
     8                  E13/UZF-1                 4       0.00       0.00                  E13/SFR-1                 2     
     9                  E13/UZF-1                 5       0.00       0.00                  E13/SFR-1                 3     
     10                 E13/UZF-1                 6       0.00       0.00                  E13/SFR-1                 11    
     11                 E13/UZF-1                 7       0.00       0.00                  E13/SFR-1                 12    
     12                 E13/UZF-1                 8       0.00       0.00                  E13/SFR-1                 12    
     13                 E13/UZF-1                 9       0.00       0.00                  E13/SFR-1                 2     
     14                 E13/UZF-1                 10      0.00       0.00                  E13/SFR-1                 3     
     15                 E13/UZF-1                 11      0.00       0.00                  E13/SFR-1                 4     
     16                 E13/UZF-1                 12      0.00       0.00                  E13/SFR-1                 10    
     17                 E13/UZF-1                 13      0.00       0.00                  E13/SFR-1                 11    
     18                 E13/UZF-1                 14      0.00       0.00                  E13/SFR-1                 12    
     19                 E13/UZF-1                 15      0.00       0.00                  E13/SFR-1                 13    
     20                 E13/UZF-1                 16      0.00       0.00                  E13/LAK-1                 2     
     21                 E13/UZF-1                 17      0.00       0.00                  E13/LAK-1                 2     
     22                 E13/UZF-1                 18      0.00       0.00                  E13/SFR-1                 3     
     23                 E13/UZF-1                 19      0.00       0.00                  E13/SFR-1                 4     
     24                 E13/UZF-1                 20      0.00       0.00                  E13/SFR-1                 5     
     25                 E13/UZF-1                 21      0.00       0.00                  E13/SFR-1                 6     
     26                 E13/UZF-1                 22      0.00       0.00                  E13/SFR-1                 6     
     27                 E13/UZF-1                 23      0.00       0.00                  E13/SFR-1                 13    
     28                 E13/UZF-1                 24      0.00       0.00                  E13/SFR-1                 17    
     29                 E13/UZF-1                 25      0.00       0.00                  E13/LAK-1                 2     
     30                 E13/UZF-1                 26      0.00       0.00                  E13/LAK-1                 2     
     31                 E13/UZF-1                 27      0.00       0.00                  E13/LAK-1                 2     
     32                 E13/UZF-1                 28      0.00       0.00                  E13/LAK-1                 2     
     33                 E13/UZF-1                 29      0.00       0.00                  E13/SFR-1                 5     
     34                 E13/UZF-1                 30      0.00       0.00                  E13/SFR-1                 6     
     35                 E13/UZF-1                 31      0.00       0.00                  E13/SFR-1                 6     
     36                 E13/UZF-1                 32      0.00       0.00                  E13/SFR-1                 14    
     37                 E13/UZF-1                 33      0.00       0.00                  E13/SFR-1                 17    
     38                 E13/UZF-1                 34      0.00       0.00                  E13/SFR-1                 16    
     39                 E13/UZF-1                 35      0.00       0.00                  E13/LAK-1                 2     
     40                 E13/UZF-1                 36      0.00       0.00                  E13/LAK-1                 2     
     41                 E13/UZF-1                 37      0.00       0.00                  E13/LAK-1                 2     
     42                 E13/UZF-1                 38      0.00       0.00                  E13/LAK-1                 2     
     43                 E13/UZF-1                 39      0.00       0.00                  E13/LAK-1                 2     
     44                 E13/UZF-1                 40      0.00       0.00                  E13/SFR-1                 7     
     45                 E13/UZF-1                 41      0.00       0.00                  E13/SFR-1                 7     
     46                 E13/UZF-1                 42      0.00       0.00                  E13/SFR-1                 19    
     47                 E13/UZF-1                 43      0.00       0.00                  E13/SFR-1                 17    
     48                 E13/UZF-1                 44      0.00       0.00                  E13/SFR-1                 16    
     49                 E13/UZF-1                 45      0.00       0.00                  E13/LAK-1                 2     
     50                 E13/UZF-1                 46      0.00       0.00                  E13/LAK-1                 2     
     51                 E13/UZF-1                 47      0.00       0.00                  E13/LAK-1                 2     
     52                 E13/UZF-1                 48      0.00       0.00                  E13/LAK-1                 2     
     53                 E13/UZF-1                 49      0.00       0.00                  E13/LAK-1                 2     
     54                 E13/UZF-1                 50      0.00       0.00                  E13/SFR-1                 8     
     55                 E13/UZF-1                 51      0.00       0.00                  E13/SFR-1                 20    
     56                 E13/UZF-1                 52      0.00       0.00                  E13/SFR-1                 20    
     57                 E13/UZF-1                 53      0.00       0.00                  E13/SFR-1                 20    
     58                 E13/UZF-1                 54      0.00       0.00                  E13/LAK-1                 2     
     59                 E13/UZF-1                 55      0.00       0.00                  E13/LAK-1                 2     
     60                 E13/UZF-1                 56      0.00       0.00                  E13/LAK-1                 2     
     61                 E13/UZF-1                 57      0.00       0.00                  E13/LAK-1                 2     
     62                 E13/UZF-1                 58      0.00       0.00                  E13/SFR-1                 9     
     63                 E13/UZF-1                 59      0.00       0.00                  E13/SFR-1                 21    
     64                 E13/UZF-1                 60      0.00       0.00                  E13/SFR-1                 21    
     65                 E13/UZF-1                 61      0.00       0.00                  E13/SFR-1                 21    
     66                 E13/UZF-1                 62      0.00       0.00                  E13/LAK-1                 2     
     67                 E13/UZF-1                 63      0.00       0.00                  E13/LAK-1                 2     
     68                 E13/UZF-1                 64      0.00       0.00                  E13/LAK-1                 2     
     69                 E13/UZF-1                 65      0.00       0.00                  E13/LAK-1                 2     
     70                 E13/UZF-1                 66      0.00       0.00                  E13/SFR-1                 23    
     71                 E13/UZF-1                 67      0.00       0.00                  E13/LAK-1                 1     
     72                 E13/UZF-1                 68      0.00       0.00                  E13/LAK-1                 1     
     73                 E13/UZF-1                 69      0.00       0.00                  E13/LAK-1                 1     
     74                 E13/UZF-1                 70      0.00       0.00                  E13/LAK-1                 2     
     75                 E13/UZF-1                 71      0.00       0.00                  E13/LAK-1                 2     
     76                 E13/UZF-1                 72      0.00       0.00                  E13/LAK-1                 2     
     77                 E13/UZF-1                 73      0.00       0.00                  E13/LAK-1                 2     
     78                 E13/UZF-1                 74      0.00       0.00                  E13/LAK-1                 1     
     79                 E13/UZF-1                 75      0.00       0.00                  E13/LAK-1                 1     
     80                 E13/UZF-1                 76      0.00       0.00                  E13/LAK-1                 1     
     81                 E13/UZF-1                 77      0.00       0.00                  E13/LAK-1                 2     
     82                 E13/UZF-1                 78      0.00       0.00                  E13/SFR-1                 9     
     83                 E13/UZF-1                 79      0.00       0.00                  E13/LAK-1                 1     
     84                 E13/UZF-1                 80      0.00       0.00                  E13/SFR-1                 31    
     85                 E13/UZF-1                 81      0.00       0.00                  E13/SFR-1                 30    
     86                 E13/UZF-1                 82      0.00       0.00                  E13/SFR-1                 9     
     87                 E13/UZF-1                 83      0.00       0.00                  E13/SFR-1                 24    
     88                 E13/UZF-1                 84      0.00       0.00                  E13/LAK-1                 1     
     89                 E13/UZF-1                 85      0.00       0.00                  E13/LAK-1                 1     
     90                 E13/UZF-1                 86      7.74       7.74                  E13/SFR-1                 31    
     91                 E13/UZF-1                 87      1.22       1.22                  E13/SFR-1                 30    
     92                 E13/UZF-1                 88      0.00       0.00                  E13/SFR-1                 29    
     93                 E13/UZF-1                 89      0.00       0.00                  E13/SFR-1                 28    
     94                 E13/UZF-1                 90      0.00       0.00                  E13/SFR-1                 27    
     95                 E13/UZF-1                 91      0.00       0.00                  E13/SFR-1                 26    
     96                 E13/UZF-1                 92      0.00       0.00                  E13/SFR-1                 30    
     97                 E13/UZF-1                 93      0.00       0.00                  E13/LAK-1                 2     
     98                 E13/UZF-1                 94      0.00       0.00                  E13/SFR-1                 28    
     99                 E13/UZF-1                 95      0.00       0.00                  E13/SFR-1                 27    
    100                 E13/UZF-1                 96      0.00       0.00                  E13/SFR-1                 26    
    101                 E13/UZF-1                 97      0.00       0.00                  E13/LAK-1                 2     
    102                 E13/UZF-1                 98      0.00       0.00                  E13/LAK-1                 2     
    103                 E13/UZF-1                 99      0.00       0.00                  E13/LAK-1                 2     
    104                 E13/UZF-1                100      0.00       0.00                  E13/LAK-1                 2     
    105                 E13/WEL-1                 1       0.00       0.00                  E13/UZF-1                 38    
    106                 E13/WEL-1                 2       0.00       0.00                  E13/UZF-1                 39    
    107                 E13/WEL-1                 3       0.00       0.00                  E13/UZF-1                 48    
    108                 E13/WEL-1                 4       0.00       0.00                  E13/UZF-1                 49    
    109                 E13/WEL-1                 5       0.00       0.00                  E13/UZF-1                 56    
    110                 E13/WEL-1                 6       0.00       0.00                  E13/UZF-1                 57    
    111                 E13/WEL-1                 7       0.00       0.00                  E13/UZF-1                 64    
    112                 E13/WEL-1                 8       0.00       0.00                  E13/UZF-1                 65    
    113                 E13/WEL-1                 9       0.00       0.00                  E13/UZF-1                 72    
    114                 E13/WEL-1                 10      0.00       0.00                  E13/UZF-1                 73    
 --------------------------------------------------------------------------------------------------------------------------



 SFR PACKAGE (SFR-1) STAGES FOR EACH CONTROL VOLUME   PERIOD     21   STEP       15
 ------------------------------------------------------------------------------------------------------------------------------------------------------
                                                                                                                               STREAMBED    STREAMBED  
 NAME                                       NUMBER   CELLID                  STAGE        DEPTH        WIDTH       GWF HEAD   CONDUCTANCE    GRADIENT  
 ------------------------------------------------------------------------------------------------------------------------------------------------------
 ALLREACHES                                   1      (1,1,1)               1094.3       1.2349       12.000       1021.0       5.40000E-02  1.4116     
 ALLREACHES                                   2      (1,2,2)               1089.3       1.2262       12.000       1021.8       8.40000E-02  1.4087     
 ALLREACHES                                   3      (1,3,3)               1083.6       1.2163       12.000       1022.3       7.20000E-02  1.4054     
 ALLREACHES                                   4      (1,3,4)               1078.6       1.2075       12.000       1022.6       6.66000E-02  1.4025     
 ALLREACHES                                   5      (1,4,5)               1072.8       0.84113      12.000       1022.8       7.80000E-02  1.2804     
 ALLREACHES                                   6      (1,5,6)               1067.3       0.83133      12.000       1022.2       6.00000E-02  1.2771     
 ALLREACHES                                   7      (1,6,6)               1062.6       0.82276      12.000       1020.2       6.00000E-02  1.2743     
 ALLREACHES                                   8      (1,7,6)               1057.9       0.81415      12.000       1020.1       6.00000E-02  1.2714     
 ALLREACHES                                   9      (1,8,6)               1053.2       0.80551      12.000       1020.1       6.00000E-02  1.2685     
 ALLREACHES                                   10     (1,3,5)               1074.6       0.93630      9.6364       1022.7       7.22727E-03  1.4681     
 ALLREACHES                                   11     (1,3,6)               1071.9       0.98022      8.9091       1023.6       6.68182E-03  1.4901     
 ALLREACHES                                   12     (1,3,7)               1069.3       1.0277       8.2182       1027.1       5.54727E-03  1.5139     
 ALLREACHES                                   13     (1,4,8)               1066.5       1.0884       7.4545       1020.8       6.70909E-03  1.5442     
 ALLREACHES                                   14     (1,5,8)               1063.6       1.1639       6.6545       1019.8       4.99091E-03  1.5819     
 ALLREACHES                                   15     (1,6,8)               1061.8       1.2200       6.1455       1020.4       1.84364E-03  1.6100     
 ALLREACHES                                   16     (1,5,10)              1078.4       0.63679      10.000       1021.1       2.50000E-02  1.2123     
 ALLREACHES                                   17     (1,5,9)               1071.5       0.63155      10.000       1021.6       5.00000E-02  1.2105     
 ALLREACHES                                   18     (1,6,8)               1063.8       0.62558      10.000       1020.4       3.50000E-02  1.2085     
 ALLREACHES                                   19     (1,6,8)               1060.0       1.2846       10.000       1020.4       4.00000E-02  1.4282     
 ALLREACHES                                   20     (1,7,7)               1056.9       1.2770       10.000       1020.2       5.00000E-02  1.4257     
 ALLREACHES                                   21     (1,8,7)               1054.1       1.2697       10.000       1020.1       3.50000E-02  1.4232     
 ALLREACHES                                   22     (1,8,6)               1052.1       1.2646       10.000       1020.1       2.50000E-02  1.4215     
 ALLREACHES                                   23     (1,9,6)               1046.6       1.1396       12.000       1019.7       6.00000E-02  1.3799     
 ALLREACHES                                   24     (1,12,7)              1037.7       1.2667       12.000       1021.7       6.00000E-03  1.4222     
 ALLREACHES                                   25     (1,13,7)              1030.2       1.2661       12.000       1025.0       6.60000E-03  1.4220     
 ALLREACHES                                   26     (1,14,9)              1034.8       1.4870       60.000       1028.8       0.60000      1.4957     
 ALLREACHES                                   27     (1,13,8)              1031.5       1.4708       60.000       1026.3       0.60000      1.4903     
 ALLREACHES                                   28     (1,13,7)              1028.1       1.4569       60.000       1025.0       0.60000      1.0508     
 ALLREACHES                                   29     (1,13,6)              1013.9       0.91514      60.000       1019.2       0.60000     -1.7767     
 ALLREACHES                                   30     (1,13,2)              998.33       1.4512       60.000       1004.0       0.60000     -1.8846     
 ALLREACHES                                   31     (1,13,1)              993.37       1.4957       60.000       997.01       0.36000     -1.2132     
 ------------------------------------------------------------------------------------------------------------------------------------------------------



 LAK PACKAGE (LAK-1) STAGES FOR EACH CONTROL VOLUME   PERIOD     21   STEP       15
 --------------------------------------------------------------
   NUMBER      STAGE     SURFACE AREA WETTED AREA     VOLUME   
 --------------------------------------------------------------
     1       1041.3       1.00000E+08  1.01383E+08  4.27674E+09
     2       1001.4       3.00000E+08  3.01626E+08  5.30645E+09
 --------------------------------------------------------------



 HEAD WILL BE SAVED ON UNIT 1026 AT END OF TIME STEP   15, STRESS PERIOD   21


  SFR-1 BUDGET FOR ENTIRE MODEL AT END OF TIME STEP   15, STRESS PERIOD  21
  ------------------------------------------------------------------------------

     CUMULATIVE SFR-1      L**3       RATES FOR THIS TIME STEP      L**3/T
     ------------------                 ------------------------

           IN:                                      IN:
           ---                                      ---
                 GWF =   353129378.8796                   GWF =           7.9006
            RAINFALL =           0.0000              RAINFALL =           0.0000
         EVAPORATION =           0.0000           EVAPORATION =           0.0000
              RUNOFF =           0.0000                RUNOFF =           0.0000
          EXT-INFLOW = 10209780000.0000            EXT-INFLOW =         185.0000
         EXT-OUTFLOW =       1.7046E-02           EXT-OUTFLOW =           0.0000
             STORAGE =           0.0000               STORAGE =           0.0000
            FROM-MVR = 12538755007.8491              FROM-MVR =         234.8133
              TO-MVR =           0.0000                TO-MVR =           0.0000

            TOTAL IN = 23101664386.7457              TOTAL IN =         427.7139

          OUT:                                     OUT:
          ----                                     ----
                 GWF =   650222257.4077                   GWF =          11.0929
            RAINFALL =           0.0000              RAINFALL =           0.0000
         EVAPORATION =           0.0000           EVAPORATION =           0.0000
              RUNOFF =           0.0000                RUNOFF =           0.0000
          EXT-INFLOW =           0.0000            EXT-INFLOW =           0.0000
         EXT-OUTFLOW = 10975542453.1249           EXT-OUTFLOW =         206.1897
             STORAGE =           0.0000               STORAGE =           0.0000
            FROM-MVR =           0.0000              FROM-MVR =           0.0000
              TO-MVR = 11475899676.2131                TO-MVR =         210.4313

           TOTAL OUT = 23101664386.7457             TOTAL OUT =         427.7139

            IN - OUT =       1.1444E-05              IN - OUT =           0.0000

 PERCENT DISCREPANCY =           0.00     PERCENT DISCREPANCY =           0.00



  LAK-1 BUDGET FOR ENTIRE MODEL AT END OF TIME STEP   15, STRESS PERIOD  21
  ------------------------------------------------------------------------------

     CUMULATIVE LAK-1      L**3       RATES FOR THIS TIME STEP      L**3/T
     ------------------                 ------------------------

           IN:                                      IN:
           ---                                      ---
                 GWF =   446872534.5022                   GWF =          10.4004
            RAINFALL =   474616800.0000              RAINFALL =           8.6000
         EVAPORATION =           0.0000           EVAPORATION =           0.0000
              RUNOFF =   248346000.0000                RUNOFF =           4.5000
          EXT-INFLOW =           0.0000            EXT-INFLOW =           0.0000
          WITHDRAWAL =           0.0000            WITHDRAWAL =           0.0000
         EXT-OUTFLOW =           1.4933           EXT-OUTFLOW =           0.0000
             STORAGE =      334885.2259               STORAGE =           0.0000
            CONSTANT =           0.0000              CONSTANT =           0.0000
            FROM-MVR = 11475899676.2131              FROM-MVR =         210.4313
              TO-MVR =           0.0000                TO-MVR =           0.0000

            TOTAL IN = 12646069897.4346              TOTAL IN =         233.9317

          OUT:                                     OUT:
          ----                                     ----
                 GWF =   216066761.8081                   GWF =           3.2446
            RAINFALL =           0.0000              RAINFALL =           0.0000
         EVAPORATION =   237308400.0000           EVAPORATION =           4.3000
              RUNOFF =           0.0000                RUNOFF =           0.0000
          EXT-INFLOW =           0.0000            EXT-INFLOW =           0.0000
          WITHDRAWAL =     6622560.0000            WITHDRAWAL =           0.1200
         EXT-OUTFLOW =           4.3350           EXT-OUTFLOW =       1.7758E-10
             STORAGE =    10235339.3784               STORAGE =           0.4133
            CONSTANT =           0.0000              CONSTANT =           0.0000
            FROM-MVR =           0.0000              FROM-MVR =           0.0000
              TO-MVR = 12175836831.7740                TO-MVR =         225.8538

           TOTAL OUT = 12646069897.2955             TOTAL OUT =         233.9317

            IN - OUT =           0.1392              IN - OUT =       6.9058E-09

 PERCENT DISCREPANCY =           0.00     PERCENT DISCREPANCY =           0.00



  UZF-1 BUDGET FOR ENTIRE MODEL AT END OF TIME STEP   15, STRESS PERIOD  21
  ------------------------------------------------------------------------------

     CUMULATIVE UZF-1      L**3       RATES FOR THIS TIME STEP      L**3/T
     ------------------                 ------------------------

           IN:                                      IN:
           ---                                      ---
                 GWF =           0.0000                   GWF =           0.0000
        INFILTRATION =  5964286471.2000          INFILTRATION =          22.9500
             REJ-INF =           0.0000               REJ-INF =           0.0000
                UZET =           0.0000                  UZET =           0.0000
             STORAGE =  3003043875.1027               STORAGE =         133.6883
            FROM-MVR =   201042000.0000              FROM-MVR =           0.0000
      REJ-INF-TO-MVR =           0.0000        REJ-INF-TO-MVR =           0.0000

            TOTAL IN =  9168372346.3027              TOTAL IN =         156.6383

          OUT:                                     OUT:
          ----                                     ----
                 GWF =  2298949648.2089                   GWF =         131.9068
        INFILTRATION =           0.0000          INFILTRATION =           0.0000
             REJ-INF =          64.5676               REJ-INF =       8.6622E-09
                UZET =  1165095832.7520                  UZET =          21.9682
             STORAGE =  5681890810.1321               STORAGE =           2.6134
            FROM-MVR =           0.0000              FROM-MVR =           0.0000
      REJ-INF-TO-MVR =    22435882.2116        REJ-INF-TO-MVR =           0.1500

           TOTAL OUT =  9168372237.8722             TOTAL OUT =         156.6383

            IN - OUT =         108.4306              IN - OUT =       4.6854E-06

 PERCENT DISCREPANCY =           0.00     PERCENT DISCREPANCY =           0.00



  WATER MOVER BUDGET FOR ENTIRE MODEL AT END OF TIME STEP   15, STRESS PERIOD  21
  ------------------------------------------------------------------------------

     CUMULATIVE WATER MOVER      L**3       RATES FOR THIS TIME STEP      L**3/T
     ------------------                 ------------------------

           IN:                                      IN:
           ---                                      ---
               UZF-1 =   362918176.0751                 UZF-1 =           8.9595
               SFR-1 = 11475899676.2131                 SFR-1 =         210.4313
               LAK-1 = 12175836831.7740                 LAK-1 =         225.8538
               WEL-1 =   201042000.0000                 WEL-1 =           0.0000

            TOTAL IN = 24215696684.0622              TOTAL IN =         445.2446

          OUT:                                     OUT:
          ----                                     ----
               UZF-1 =   201042000.0000                 UZF-1 =           0.0000
               SFR-1 = 12538755007.8491                 SFR-1 =         234.8133
               LAK-1 = 11475899676.2131                 LAK-1 =         210.4313
               WEL-1 =           0.0000                 WEL-1 =           0.0000

           TOTAL OUT = 24215696684.0622             TOTAL OUT =         445.2446

            IN - OUT =       3.8147E-06              IN - OUT =           0.0000

 PERCENT DISCREPANCY =           0.00     PERCENT DISCREPANCY =           0.00



  VOLUME BUDGET FOR ENTIRE MODEL AT END OF TIME STEP   15, STRESS PERIOD  21
  ---------------------------------------------------------------------------------------------------

     CUMULATIVE VOLUME      L**3       RATES FOR THIS TIME STEP      L**3/T          PACKAGE NAME    
     ------------------                 ------------------------                     ----------------

           IN:                                      IN:
           ---                                      ---
              STO-SS =      905840.0067                STO-SS =       2.2239E-02     STORAGE                          
              STO-SY =   289667430.8223                STO-SY =           7.5156     STORAGE                          
                 WEL =           0.0000                   WEL =           0.0000     WEL-1                            
          WEL-TO-MVR =           0.0000            WEL-TO-MVR =           0.0000     WEL-1                            
                 GHB =    37815640.1151                   GHB =           0.6159     GHB_0                            
                 SFR =   650222255.9668                   SFR =          11.0929     SFR-1                            
                 LAK =   216066761.8081                   LAK =           3.2446     LAK-1                            
           UZF-GWRCH =  2298949648.2089             UZF-GWRCH =         131.9068     UZF-1                            
             UZF-GWD =           0.0000               UZF-GWD =           0.0000     UZF-1                            
      UZF-GWD TO-MVR =           0.0000        UZF-GWD TO-MVR =           0.0000     UZF-1                            
            UZF-GWET =           0.0000              UZF-GWET =           0.0000     UZF-1                            

            TOTAL IN =  3493627576.9279              TOTAL IN =         154.3980

          OUT:                                     OUT:
          ----                                     ----
              STO-SS =    10627959.9484                STO-SS =           0.5399     STORAGE                          
              STO-SY =  2090255832.3638                STO-SY =         125.7063     STORAGE                          
                 WEL =           0.0000                   WEL =           0.0000     WEL-1                            
          WEL-TO-MVR =   201042000.0000            WEL-TO-MVR =           0.0000     WEL-1                            
                 GHB =    18885138.7459                   GHB =           0.3424     GHB_0                            
                 SFR =   353129701.7594                   SFR =           7.9006     SFR-1                            
                 LAK =   446872534.5022                   LAK =          10.4004     LAK-1                            
           UZF-GWRCH =           0.0000             UZF-GWRCH =           0.0000     UZF-1                            
             UZF-GWD =         117.4971               UZF-GWD =       1.7620E-07     UZF-1                            
      UZF-GWD TO-MVR =   340482293.8635        UZF-GWD TO-MVR =           8.8095     UZF-1                            
            UZF-GWET =    32308305.5754              UZF-GWET =           0.6981     UZF-1                            

           TOTAL OUT =  3493603884.2557             TOTAL OUT =         154.3972

            IN - OUT =       23692.6721              IN - OUT =       7.4414E-04

 PERCENT DISCREPANCY =           0.00     PERCENT DISCREPANCY =           0.00




         TIME SUMMARY AT END OF TIME STEP   15 IN STRESS PERIOD   21
                    SECONDS     MINUTES      HOURS       DAYS        YEARS
                    -----------------------------------------------------------
   TIME STEP LENGTH 1.75200E+05  2920.0      48.667      2.0278     5.55175E-03
 STRESS PERIOD TIME 2.62800E+06  43800.      730.00      30.417     8.32763E-02
         TOTAL TIME 5.51880E+07 9.19800E+05  15330.      638.75      1.7488    


end timestep


start timestep kper="22" kstp="1" mode="normal"


 OUTPUT CONTROL FOR STRESS PERIOD 22 IS REPEATED USING SETTINGS FROM A PREVIOUS STRESS PERIOD.


 STRESS PERIOD 22 IS TRANSIENT


 REUSING MVRS FROM LAST STRESS PERIOD

 REUSING SFRS FROM LAST STRESS PERIOD

 REUSING LAKS FROM LAST STRESS PERIOD

end timestep


start timestep kper="22" kstp="2" mode="normal"


end timestep


start timestep kper="22" kstp="3" mode="normal"


end timestep


start timestep kper="22" kstp="4" mode="normal"


end timestep


start timestep kper="22" kstp="5" mode="normal"


end timestep


start timestep kper="22" kstp="6" mode="normal"


end timestep


start timestep kper="22" kstp="7" mode="normal"


end timestep


start timestep kper="22" kstp="8" mode="normal"


end timestep


start timestep kper="22" kstp="9" mode="normal"


end timestep


start timestep kper="22" kstp="10" mode="normal"


end timestep


start timestep kper="22" kstp="11" mode="normal"


end timestep


start timestep kper="22" kstp="12" mode="normal"


end timestep


start timestep kper="22" kstp="13" mode="normal"


end timestep


start timestep kper="22" kstp="14" mode="normal"


end timestep


start timestep kper="22" kstp="15" mode="normal"

 UBDSV1 SAVING           STO-SS ON UNIT   1025 AT TIME STEP     15, STRESS PERIOD     22
 UBDSV1 SAVING           STO-SY ON UNIT   1025 AT TIME STEP     15, STRESS PERIOD     22
 UBDSV1 SAVING     FLOW-JA-FACE ON UNIT   1025 AT TIME STEP     15, STRESS PERIOD     22
 UBDSV06 SAVING       DATA-SPDIS IN MODEL E13              PACKAGE NPF             CONNECTED TO MODEL E13              PACKAGE NPF              ON UNIT   1025 AT TIME STEP     15, STRESS PERIOD     22
 UBDSV06 SAVING              WEL IN MODEL E13              PACKAGE E13             CONNECTED TO MODEL E13              PACKAGE WEL-1            ON UNIT   1025 AT TIME STEP     15, STRESS PERIOD     22
 UBDSV06 SAVING       WEL-TO-MVR IN MODEL E13              PACKAGE E13             CONNECTED TO MODEL E13              PACKAGE WEL-1            ON UNIT   1025 AT TIME STEP     15, STRESS PERIOD     22
 UBDSV06 SAVING              GHB IN MODEL E13              PACKAGE E13             CONNECTED TO MODEL E13              PACKAGE GHB_0            ON UNIT   1025 AT TIME STEP     15, STRESS PERIOD     22
 UBDSV06 SAVING              SFR IN MODEL E13              PACKAGE E13             CONNECTED TO MODEL E13              PACKAGE SFR-1            ON UNIT   1025 AT TIME STEP     15, STRESS PERIOD     22
 UBDSV06 SAVING              LAK IN MODEL E13              PACKAGE E13             CONNECTED TO MODEL E13              PACKAGE LAK-1            ON UNIT   1025 AT TIME STEP     15, STRESS PERIOD     22
 UBDSV06 SAVING        UZF-GWRCH IN MODEL E13              PACKAGE E13             CONNECTED TO MODEL E13              PACKAGE UZF-1            ON UNIT   1025 AT TIME STEP     15, STRESS PERIOD     22
 UBDSV06 SAVING          UZF-GWD IN MODEL E13              PACKAGE E13             CONNECTED TO MODEL E13              PACKAGE UZF-1            ON UNIT   1025 AT TIME STEP     15, STRESS PERIOD     22
 UBDSV06 SAVING   UZF-GWD TO-MVR IN MODEL E13              PACKAGE E13             CONNECTED TO MODEL E13              PACKAGE UZF-1            ON UNIT   1025 AT TIME STEP     15, STRESS PERIOD     22
 UBDSV06 SAVING         UZF-GWET IN MODEL E13              PACKAGE E13             CONNECTED TO MODEL E13              PACKAGE UZF-1            ON UNIT   1025 AT TIME STEP     15, STRESS PERIOD     22
 UBDSV06 SAVING     FLOW-JA-FACE IN MODEL E13              PACKAGE SFR-1           CONNECTED TO MODEL E13              PACKAGE SFR-1            ON UNIT   1017 AT TIME STEP     15, STRESS PERIOD     22
 UBDSV06 SAVING              GWF IN MODEL E13              PACKAGE SFR-1           CONNECTED TO MODEL E13              PACKAGE E13              ON UNIT   1017 AT TIME STEP     15, STRESS PERIOD     22
 UBDSV06 SAVING         RAINFALL IN MODEL E13              PACKAGE SFR-1           CONNECTED TO MODEL E13              PACKAGE SFR-1            ON UNIT   1017 AT TIME STEP     15, STRESS PERIOD     22
 UBDSV06 SAVING      EVAPORATION IN MODEL E13              PACKAGE SFR-1           CONNECTED TO MODEL E13              PACKAGE SFR-1            ON UNIT   1017 AT TIME STEP     15, STRESS PERIOD     22
 UBDSV06 SAVING           RUNOFF IN MODEL E13              PACKAGE SFR-1           CONNECTED TO MODEL E13              PACKAGE SFR-1            ON UNIT   1017 AT TIME STEP     15, STRESS PERIOD     22
 UBDSV06 SAVING       EXT-INFLOW IN MODEL E13              PACKAGE SFR-1           CONNECTED TO MODEL E13              PACKAGE SFR-1            ON UNIT   1017 AT TIME STEP     15, STRESS PERIOD     22
 UBDSV06 SAVING      EXT-OUTFLOW IN MODEL E13              PACKAGE SFR-1           CONNECTED TO MODEL E13              PACKAGE SFR-1            ON UNIT   1017 AT TIME STEP     15, STRESS PERIOD     22
 UBDSV06 SAVING          STORAGE IN MODEL E13              PACKAGE SFR-1           CONNECTED TO MODEL E13              PACKAGE SFR-1            ON UNIT   1017 AT TIME STEP     15, STRESS PERIOD     22
 UBDSV06 SAVING         FROM-MVR IN MODEL E13              PACKAGE SFR-1           CONNECTED TO MODEL E13              PACKAGE SFR-1            ON UNIT   1017 AT TIME STEP     15, STRESS PERIOD     22
 UBDSV06 SAVING           TO-MVR IN MODEL E13              PACKAGE SFR-1           CONNECTED TO MODEL E13              PACKAGE SFR-1            ON UNIT   1017 AT TIME STEP     15, STRESS PERIOD     22
 UBDSV06 SAVING              GWF IN MODEL E13              PACKAGE LAK-1           CONNECTED TO MODEL E13              PACKAGE E13              ON UNIT   1019 AT TIME STEP     15, STRESS PERIOD     22
 UBDSV06 SAVING         RAINFALL IN MODEL E13              PACKAGE LAK-1           CONNECTED TO MODEL E13              PACKAGE LAK-1            ON UNIT   1019 AT TIME STEP     15, STRESS PERIOD     22
 UBDSV06 SAVING      EVAPORATION IN MODEL E13              PACKAGE LAK-1           CONNECTED TO MODEL E13              PACKAGE LAK-1            ON UNIT   1019 AT TIME STEP     15, STRESS PERIOD     22
 UBDSV06 SAVING           RUNOFF IN MODEL E13              PACKAGE LAK-1           CONNECTED TO MODEL E13              PACKAGE LAK-1            ON UNIT   1019 AT TIME STEP     15, STRESS PERIOD     22
 UBDSV06 SAVING       EXT-INFLOW IN MODEL E13              PACKAGE LAK-1           CONNECTED TO MODEL E13              PACKAGE LAK-1            ON UNIT   1019 AT TIME STEP     15, STRESS PERIOD     22
 UBDSV06 SAVING       WITHDRAWAL IN MODEL E13              PACKAGE LAK-1           CONNECTED TO MODEL E13              PACKAGE LAK-1            ON UNIT   1019 AT TIME STEP     15, STRESS PERIOD     22
 UBDSV06 SAVING      EXT-OUTFLOW IN MODEL E13              PACKAGE LAK-1           CONNECTED TO MODEL E13              PACKAGE LAK-1            ON UNIT   1019 AT TIME STEP     15, STRESS PERIOD     22
 UBDSV06 SAVING          STORAGE IN MODEL E13              PACKAGE LAK-1           CONNECTED TO MODEL E13              PACKAGE LAK-1            ON UNIT   1019 AT TIME STEP     15, STRESS PERIOD     22
 UBDSV06 SAVING         CONSTANT IN MODEL E13              PACKAGE LAK-1           CONNECTED TO MODEL E13              PACKAGE LAK-1            ON UNIT   1019 AT TIME STEP     15, STRESS PERIOD     22
 UBDSV06 SAVING         FROM-MVR IN MODEL E13              PACKAGE LAK-1           CONNECTED TO MODEL E13              PACKAGE LAK-1            ON UNIT   1019 AT TIME STEP     15, STRESS PERIOD     22
 UBDSV06 SAVING           TO-MVR IN MODEL E13              PACKAGE LAK-1           CONNECTED TO MODEL E13              PACKAGE LAK-1            ON UNIT   1019 AT TIME STEP     15, STRESS PERIOD     22
 UBDSV06 SAVING     FLOW-JA-FACE IN MODEL E13              PACKAGE UZF-1           CONNECTED TO MODEL E13              PACKAGE UZF-1            ON UNIT   1021 AT TIME STEP     15, STRESS PERIOD     22
 UBDSV06 SAVING              GWF IN MODEL E13              PACKAGE UZF-1           CONNECTED TO MODEL E13              PACKAGE E13              ON UNIT   1021 AT TIME STEP     15, STRESS PERIOD     22
 UBDSV06 SAVING     INFILTRATION IN MODEL E13              PACKAGE UZF-1           CONNECTED TO MODEL E13              PACKAGE UZF-1            ON UNIT   1021 AT TIME STEP     15, STRESS PERIOD     22
 UBDSV06 SAVING          REJ-INF IN MODEL E13              PACKAGE UZF-1           CONNECTED TO MODEL E13              PACKAGE UZF-1            ON UNIT   1021 AT TIME STEP     15, STRESS PERIOD     22
 UBDSV06 SAVING             UZET IN MODEL E13              PACKAGE UZF-1           CONNECTED TO MODEL E13              PACKAGE UZF-1            ON UNIT   1021 AT TIME STEP     15, STRESS PERIOD     22
 UBDSV06 SAVING          STORAGE IN MODEL E13              PACKAGE UZF-1           CONNECTED TO MODEL E13              PACKAGE UZF-1            ON UNIT   1021 AT TIME STEP     15, STRESS PERIOD     22
 UBDSV06 SAVING         FROM-MVR IN MODEL E13              PACKAGE UZF-1           CONNECTED TO MODEL E13              PACKAGE UZF-1            ON UNIT   1021 AT TIME STEP     15, STRESS PERIOD     22
 UBDSV06 SAVING   REJ-INF-TO-MVR IN MODEL E13              PACKAGE UZF-1           CONNECTED TO MODEL E13              PACKAGE UZF-1            ON UNIT   1021 AT TIME STEP     15, STRESS PERIOD     22
 UBDSV06 SAVING       MOVER-FLOW IN MODEL E13              PACKAGE UZF-1           CONNECTED TO MODEL E13              PACKAGE UZF-1            ON UNIT   1023 AT TIME STEP     15, STRESS PERIOD     22
 UBDSV06 SAVING       MOVER-FLOW IN MODEL E13              PACKAGE UZF-1           CONNECTED TO MODEL E13              PACKAGE SFR-1            ON UNIT   1023 AT TIME STEP     15, STRESS PERIOD     22
 UBDSV06 SAVING       MOVER-FLOW IN MODEL E13              PACKAGE UZF-1           CONNECTED TO MODEL E13              PACKAGE LAK-1            ON UNIT   1023 AT TIME STEP     15, STRESS PERIOD     22
 UBDSV06 SAVING       MOVER-FLOW IN MODEL E13              PACKAGE UZF-1           CONNECTED TO MODEL E13              PACKAGE WEL-1            ON UNIT   1023 AT TIME STEP     15, STRESS PERIOD     22
 UBDSV06 SAVING       MOVER-FLOW IN MODEL E13              PACKAGE SFR-1           CONNECTED TO MODEL E13              PACKAGE UZF-1            ON UNIT   1023 AT TIME STEP     15, STRESS PERIOD     22
 UBDSV06 SAVING       MOVER-FLOW IN MODEL E13              PACKAGE SFR-1           CONNECTED TO MODEL E13              PACKAGE SFR-1            ON UNIT   1023 AT TIME STEP     15, STRESS PERIOD     22
 UBDSV06 SAVING       MOVER-FLOW IN MODEL E13              PACKAGE SFR-1           CONNECTED TO MODEL E13              PACKAGE LAK-1            ON UNIT   1023 AT TIME STEP     15, STRESS PERIOD     22
 UBDSV06 SAVING       MOVER-FLOW IN MODEL E13              PACKAGE SFR-1           CONNECTED TO MODEL E13              PACKAGE WEL-1            ON UNIT   1023 AT TIME STEP     15, STRESS PERIOD     22
 UBDSV06 SAVING       MOVER-FLOW IN MODEL E13              PACKAGE LAK-1           CONNECTED TO MODEL E13              PACKAGE UZF-1            ON UNIT   1023 AT TIME STEP     15, STRESS PERIOD     22
 UBDSV06 SAVING       MOVER-FLOW IN MODEL E13              PACKAGE LAK-1           CONNECTED TO MODEL E13              PACKAGE SFR-1            ON UNIT   1023 AT TIME STEP     15, STRESS PERIOD     22
 UBDSV06 SAVING       MOVER-FLOW IN MODEL E13              PACKAGE LAK-1           CONNECTED TO MODEL E13              PACKAGE LAK-1            ON UNIT   1023 AT TIME STEP     15, STRESS PERIOD     22
 UBDSV06 SAVING       MOVER-FLOW IN MODEL E13              PACKAGE LAK-1           CONNECTED TO MODEL E13              PACKAGE WEL-1            ON UNIT   1023 AT TIME STEP     15, STRESS PERIOD     22
 UBDSV06 SAVING       MOVER-FLOW IN MODEL E13              PACKAGE WEL-1           CONNECTED TO MODEL E13              PACKAGE UZF-1            ON UNIT   1023 AT TIME STEP     15, STRESS PERIOD     22
 UBDSV06 SAVING       MOVER-FLOW IN MODEL E13              PACKAGE WEL-1           CONNECTED TO MODEL E13              PACKAGE SFR-1            ON UNIT   1023 AT TIME STEP     15, STRESS PERIOD     22
 UBDSV06 SAVING       MOVER-FLOW IN MODEL E13              PACKAGE WEL-1           CONNECTED TO MODEL E13              PACKAGE LAK-1            ON UNIT   1023 AT TIME STEP     15, STRESS PERIOD     22
 UBDSV06 SAVING       MOVER-FLOW IN MODEL E13              PACKAGE WEL-1           CONNECTED TO MODEL E13              PACKAGE WEL-1            ON UNIT   1023 AT TIME STEP     15, STRESS PERIOD     22

 WEL PACKAGE (WEL-1) FLOW RATES   PERIOD     22   STEP       15
 -----------------------------------------------
   NUMBER   CELLID                    RATE      
 -----------------------------------------------
     1      (1,6,4)               0.0000000     
     2      (1,6,5)               0.0000000     
     3      (1,7,4)               0.0000000     
     4      (1,7,5)               0.0000000     
     5      (1,8,4)               0.0000000     
     6      (1,8,5)               0.0000000     
     7      (1,9,4)               0.0000000     
     8      (1,9,5)               0.0000000     
     9      (1,10,4)              0.0000000     
     10     (1,10,5)              0.0000000     
 -----------------------------------------------




 WEL PACKAGE (WEL-1) FLOW RATES TO-MVR   PERIOD     22   STEP       15
 -----------------------------------------------
   NUMBER   CELLID                    RATE      
 -----------------------------------------------
     1      (1,6,4)               0.0000000     
     2      (1,6,5)               0.0000000     
     3      (1,7,4)               0.0000000     
     4      (1,7,5)               0.0000000     
     5      (1,8,4)               0.0000000     
     6      (1,8,5)               0.0000000     
     7      (1,9,4)               0.0000000     
     8      (1,9,5)               0.0000000     
     9      (1,10,4)              0.0000000     
     10     (1,10,5)              0.0000000     
 -----------------------------------------------




 SFR PACKAGE (SFR-1) FLOW RATES   PERIOD     22   STEP       15
 ----------------------------------------------------------------------------------------
   NUMBER   CELLID                    RATE       NAME                                    
 ----------------------------------------------------------------------------------------
     1      (1,1,1)               0.22868377     ALLREACHES                              
     2      (1,2,2)               0.35499870     ALLREACHES                              
     3      (1,3,3)               0.30357347     ALLREACHES                              
     4      (1,3,4)               0.28021936     ALLREACHES                              
     5      (1,4,5)               0.29960805     ALLREACHES                              
     6      (1,5,6)               0.22987955     ALLREACHES                              
     7      (1,6,6)               0.22936563     ALLREACHES                              
     8      (1,7,6)               0.22884928     ALLREACHES                              
     9      (1,8,6)               0.22833044     ALLREACHES                              
     10     (1,3,5)               2.12214188E-02 ALLREACHES                              
     11     (1,3,6)               1.99133007E-02 ALLREACHES                              
     12     (1,3,7)               1.67956407E-02 ALLREACHES                              
     13     (1,4,8)               2.07205450E-02 ALLREACHES                              
     14     (1,5,8)               1.57905563E-02 ALLREACHES                              
     15     (1,6,8)               5.93648362E-03 ALLREACHES                              
     16     (1,5,10)              9.09197693E-02 ALLREACHES                              
     17     (1,5,9)               0.18157734     ALLREACHES                              
     18     (1,6,8)               0.12689514     ALLREACHES                              
     19     (1,6,8)               0.17138468     ALLREACHES                              
     20     (1,7,7)               0.21384773     ALLREACHES                              
     21     (1,8,7)               0.14943953     ALLREACHES                              
     22     (1,8,6)               0.10661428     ALLREACHES                              
     23     (1,9,6)               0.24837387     ALLREACHES                              
     24     (1,12,7)              2.56185161E-02 ALLREACHES                              
     25     (1,13,7)              2.81763236E-02 ALLREACHES                              
     26     (1,14,9)              2.6922030      ALLREACHES                              
     27     (1,13,8)              2.6824902      ALLREACHES                              
     28     (1,13,7)              1.8668110      ALLREACHES                              
     29     (1,13,6)             -3.1648356      ALLREACHES                              
     30     (1,13,2)             -3.3916101      ALLREACHES                              
     31     (1,13,1)             -1.3098084      ALLREACHES                              
 ----------------------------------------------------------------------------------------




 LAK PACKAGE (LAK-1) FLOW RATES   PERIOD     22   STEP       15
 -----------------------------------------------
   NUMBER   CELLID                    RATE      
 -----------------------------------------------
     1      (1,9,7)               7.61130889E-03
     2      (1,10,6)              9.67461433E-03
     3      (2,10,7)              0.80141519    
     4      (1,9,8)               4.97158221E-03
     5      (1,10,9)              1.06425750E-04
     6      (2,10,8)              0.76564342    
     7      (1,11,6)              1.04851447E-02
     8      (1,12,7)              9.39921587E-03
     9      (2,11,7)              0.79699156    
     10     (1,11,9)              2.63410428E-03
     11     (1,12,8)              8.98361821E-03
     12     (2,11,8)              0.76391114    
     13     (1,10,3)             -2.40888091E-03
     14     (1,11,2)             -1.92666843E-03
     15     (2,11,3)             -0.84769903    
     16     (1,10,4)             -2.05092782E-03
     17     (2,11,4)             -0.86257210    
     18     (1,10,5)             -4.59836303E-03
     19     (1,11,6)             -5.17705429E-03
     20     (2,11,5)             -0.88333281    
     21     (1,12,2)             -5.55170193E-03
     22     (2,12,3)             -0.81420954    
     23     (2,12,4)             -0.84946934    
     24     (1,12,6)             -7.04272025E-03
     25     (2,12,5)             -0.88131076    
     26     (1,13,2)             -1.26857926E-03
     27     (2,13,3)             -0.80862346    
     28     (2,13,4)             -0.85655869    
     29     (1,13,6)             -7.48164207E-03
     30     (2,13,5)             -0.89333396    
     31     (1,14,2)             -5.94137188E-03
     32     (1,15,3)              0.0000000     
     33     (2,14,3)             -0.84129538    
     34     (1,15,4)              0.0000000     
     35     (2,14,4)             -0.88238363    
     36     (1,14,6)             -6.10431988E-03
     37     (1,15,5)              0.0000000     
     38     (2,14,5)             -0.91652756    
 -----------------------------------------------




 SFR-1 PACKAGE - SUMMARY OF FLOWS FOR EACH CONTROL VOLUME   PERIOD     22   STEP       15
 --------------------------------------------------------------------------------------------------------------------------------------------------------------------------------------------------------
                                                                                                                                                                                               PERCENT   
   NUMBER   CELLID                  INFLOW      OUTFLOW        GWF        RAINFALL   EVAPORATION     RUNOFF     EXT INFLOW  EXT OUTFLOW    STORAGE      FROM MVR      TO MVR      IN - OUT    DIFFERENCE 
 --------------------------------------------------------------------------------------------------------------------------------------------------------------------------------------------------------
     1      (1,1,1)               0.0000      -24.771      -0.22868      0.0000       0.0000       0.0000       25.000       0.0000       0.0000       0.0000       0.0000       0.0000       0.0000     
     2      (1,2,2)               24.771      -24.416      -0.35500      0.0000       0.0000       0.0000       0.0000       0.0000       0.0000       0.0000       0.0000       0.0000       0.0000     
     3      (1,3,3)               24.416      -24.113      -0.30357      0.0000       0.0000       0.0000       0.0000       0.0000       0.0000       0.0000       0.0000       0.0000       0.0000     
     4      (1,3,4)               24.113      -23.833      -0.28022      0.0000       0.0000       0.0000       0.0000       0.0000       0.0000       0.0000       0.0000       0.0000       0.0000     
     5      (1,4,5)               13.833      -13.533      -0.29961      0.0000       0.0000       0.0000       0.0000       0.0000       0.0000       0.0000       0.0000       0.0000       0.0000     
     6      (1,5,6)               13.533      -13.303      -0.22988      0.0000       0.0000       0.0000       0.0000       0.0000       0.0000       0.0000       0.0000       0.0000       0.0000     
     7      (1,6,6)               13.303      -13.074      -0.22937      0.0000       0.0000       0.0000       0.0000       0.0000       0.0000       0.0000       0.0000       0.0000       0.0000     
     8      (1,7,6)               13.074      -12.845      -0.22885      0.0000       0.0000       0.0000       0.0000       0.0000       0.0000       0.0000       0.0000       0.0000       0.0000     
     9      (1,8,6)               12.845      -12.616      -0.22833      0.0000       0.0000       0.0000       0.0000       0.0000       0.0000       0.0000       0.0000       0.0000       0.0000     
     10     (1,3,5)               10.000      -9.9788      -2.12214E-02  0.0000       0.0000       0.0000       0.0000       0.0000       0.0000       0.0000       0.0000       0.0000       0.0000     
     11     (1,3,6)               9.9788      -9.9589      -1.99133E-02  0.0000       0.0000       0.0000       0.0000       0.0000       0.0000       0.0000       0.0000       0.0000       0.0000     
     12     (1,3,7)               9.9589      -9.9421      -1.67956E-02  0.0000       0.0000       0.0000       0.0000       0.0000       0.0000       0.0000       0.0000       0.0000       0.0000     
     13     (1,4,8)               9.9421      -9.9213      -2.07205E-02  0.0000       0.0000       0.0000       0.0000       0.0000       0.0000       0.0000       0.0000       0.0000       0.0000     
     14     (1,5,8)               9.9213      -9.9056      -1.57906E-02  0.0000       0.0000       0.0000       0.0000       0.0000       0.0000       0.0000       0.0000       0.0000       0.0000     
     15     (1,6,8)               9.9056      -9.8996      -5.93648E-03  0.0000       0.0000       0.0000       0.0000       0.0000       0.0000       0.0000       0.0000       0.0000       0.0000     
     16     (1,5,10)              0.0000      -9.9091      -9.09198E-02  0.0000       0.0000       0.0000       10.000       0.0000       0.0000       0.0000       0.0000       0.0000       0.0000     
     17     (1,5,9)               9.9091      -9.7275      -0.18158      0.0000       0.0000       0.0000       0.0000       0.0000       0.0000       0.0000       0.0000       0.0000       0.0000     
     18     (1,6,8)               9.7275      -9.6006      -0.12690      0.0000       0.0000       0.0000       0.0000       0.0000       0.0000       0.0000       0.0000       0.0000       0.0000     
     19     (1,6,8)               19.500      -19.329      -0.17138      0.0000       0.0000       0.0000       0.0000       0.0000       0.0000       0.0000       0.0000       0.0000       0.0000     
     20     (1,7,7)               19.329      -19.115      -0.21385      0.0000       0.0000       0.0000       0.0000       0.0000       0.0000       0.0000       0.0000       0.0000       0.0000     
     21     (1,8,7)               19.115      -18.966      -0.14944      0.0000       0.0000       0.0000       0.0000       0.0000       0.0000       0.0000       0.0000       0.0000       0.0000     
     22     (1,8,6)               18.966      -18.859      -0.10661      0.0000       0.0000       0.0000       0.0000       0.0000       0.0000       0.0000       0.0000       0.0000       0.0000     
     23     (1,9,6)               31.475       0.0000      -0.24837      0.0000       0.0000       0.0000       0.0000       0.0000       0.0000       0.0000      -31.227       0.0000       0.0000     
     24     (1,12,7)              0.0000      -33.436      -2.56185E-02  0.0000       0.0000       0.0000       0.0000       0.0000       0.0000       33.461       0.0000       0.0000       0.0000     
     25     (1,13,7)              33.436      -33.407      -2.81763E-02  0.0000       0.0000       0.0000       0.0000       0.0000       0.0000       0.0000       0.0000       0.0000       0.0000     
     26     (1,14,9)              0.0000      -147.31      -2.6922       0.0000       0.0000       0.0000       150.00       0.0000       0.0000       0.0000       0.0000       0.0000       0.0000     
     27     (1,13,8)              147.31      -144.63      -2.6825       0.0000       0.0000       0.0000       0.0000       0.0000       0.0000       0.0000       0.0000       0.0000       0.0000     
     28     (1,13,7)              144.63      -142.76      -1.8668       0.0000       0.0000       0.0000       0.0000       0.0000       0.0000       0.0000       0.0000       0.0000       0.0000     
     29     (1,13,6)              176.17       0.0000       3.1648       0.0000       0.0000       0.0000       0.0000      -2.51359E-08  0.0000       0.0000      -179.33       0.0000       0.0000     
     30     (1,13,2)              0.0000      -197.44       3.3916       0.0000       0.0000       0.0000       0.0000       0.0000       0.0000       194.04       0.0000       0.0000       0.0000     
     31     (1,13,1)              197.44       0.0000       1.3098       0.0000       0.0000       0.0000       0.0000      -206.53       0.0000       7.7802       0.0000       0.0000       0.0000     
 --------------------------------------------------------------------------------------------------------------------------------------------------------------------------------------------------------



 LAK-1 PACKAGE - SUMMARY OF FLOWS FOR EACH CONTROL VOLUME   PERIOD     22   STEP       15
 -----------------------------------------------------------------------------------------------------------------------------------------------------------------------------------
                                                                                                                                                                          PERCENT   
   NUMBER       GWF        RAINFALL   EVAPORATION     RUNOFF     EXT INFLOW   WITHDRAWAL  EXT OUTFLOW    STORAGE      CONSTANT     FROM MVR      TO MVR      IN - OUT    DIFFERENCE 
 -----------------------------------------------------------------------------------------------------------------------------------------------------------------------------------
     1      -3.1818       5.0000      -1.0000       1.5000       0.0000       0.0000       0.0000      -8.41103E-02  0.0000       31.227      -33.461       1.44192E-07  3.82197E-07
     2       10.387       3.6000      -3.3000       3.0000       0.0000      -0.12000     -4.92398E-09 -7.23309E-02  0.0000       179.33      -192.83       3.39207E-07  1.72785E-07
 -----------------------------------------------------------------------------------------------------------------------------------------------------------------------------------



 WATER MOVER PACKAGE (MVR) FLOW RATES   PERIOD     22   STEP       15
 --------------------------------------------------------------------------------------------------------------------------
                                               PROVIDER  AVAILABLE   PROVIDED                                     RECEIVER 
   NUMBER           PROVIDER LOCATION             ID        RATE       RATE            RECEIVER LOCATION             ID    
 --------------------------------------------------------------------------------------------------------------------------
     1                  E13/SFR-1                 23      31.2       31.2                  E13/LAK-1                 1     
     2                  E13/LAK-1                 1       33.5       33.5                  E13/SFR-1                 24    
     3                  E13/SFR-1                 29      179.       179.                  E13/LAK-1                 2     
     4                  E13/LAK-1                 2       193.       193.                  E13/SFR-1                 30    
     5                  E13/UZF-1                 1       0.00       0.00                  E13/SFR-1                 1     
     6                  E13/UZF-1                 2       0.00       0.00                  E13/SFR-1                 2     
     7                  E13/UZF-1                 3       0.00       0.00                  E13/SFR-1                 2     
     8                  E13/UZF-1                 4       0.00       0.00                  E13/SFR-1                 2     
     9                  E13/UZF-1                 5       0.00       0.00                  E13/SFR-1                 3     
     10                 E13/UZF-1                 6       0.00       0.00                  E13/SFR-1                 11    
     11                 E13/UZF-1                 7       0.00       0.00                  E13/SFR-1                 12    
     12                 E13/UZF-1                 8       0.00       0.00                  E13/SFR-1                 12    
     13                 E13/UZF-1                 9       0.00       0.00                  E13/SFR-1                 2     
     14                 E13/UZF-1                 10      0.00       0.00                  E13/SFR-1                 3     
     15                 E13/UZF-1                 11      0.00       0.00                  E13/SFR-1                 4     
     16                 E13/UZF-1                 12      0.00       0.00                  E13/SFR-1                 10    
     17                 E13/UZF-1                 13      0.00       0.00                  E13/SFR-1                 11    
     18                 E13/UZF-1                 14      0.00       0.00                  E13/SFR-1                 12    
     19                 E13/UZF-1                 15      0.00       0.00                  E13/SFR-1                 13    
     20                 E13/UZF-1                 16      0.00       0.00                  E13/LAK-1                 2     
     21                 E13/UZF-1                 17      0.00       0.00                  E13/LAK-1                 2     
     22                 E13/UZF-1                 18      0.00       0.00                  E13/SFR-1                 3     
     23                 E13/UZF-1                 19      0.00       0.00                  E13/SFR-1                 4     
     24                 E13/UZF-1                 20      0.00       0.00                  E13/SFR-1                 5     
     25                 E13/UZF-1                 21      0.00       0.00                  E13/SFR-1                 6     
     26                 E13/UZF-1                 22      0.00       0.00                  E13/SFR-1                 6     
     27                 E13/UZF-1                 23      0.00       0.00                  E13/SFR-1                 13    
     28                 E13/UZF-1                 24      0.00       0.00                  E13/SFR-1                 17    
     29                 E13/UZF-1                 25      0.00       0.00                  E13/LAK-1                 2     
     30                 E13/UZF-1                 26      0.00       0.00                  E13/LAK-1                 2     
     31                 E13/UZF-1                 27      0.00       0.00                  E13/LAK-1                 2     
     32                 E13/UZF-1                 28      0.00       0.00                  E13/LAK-1                 2     
     33                 E13/UZF-1                 29      0.00       0.00                  E13/SFR-1                 5     
     34                 E13/UZF-1                 30      0.00       0.00                  E13/SFR-1                 6     
     35                 E13/UZF-1                 31      0.00       0.00                  E13/SFR-1                 6     
     36                 E13/UZF-1                 32      0.00       0.00                  E13/SFR-1                 14    
     37                 E13/UZF-1                 33      0.00       0.00                  E13/SFR-1                 17    
     38                 E13/UZF-1                 34      0.00       0.00                  E13/SFR-1                 16    
     39                 E13/UZF-1                 35      0.00       0.00                  E13/LAK-1                 2     
     40                 E13/UZF-1                 36      0.00       0.00                  E13/LAK-1                 2     
     41                 E13/UZF-1                 37      0.00       0.00                  E13/LAK-1                 2     
     42                 E13/UZF-1                 38      0.00       0.00                  E13/LAK-1                 2     
     43                 E13/UZF-1                 39      0.00       0.00                  E13/LAK-1                 2     
     44                 E13/UZF-1                 40      0.00       0.00                  E13/SFR-1                 7     
     45                 E13/UZF-1                 41      0.00       0.00                  E13/SFR-1                 7     
     46                 E13/UZF-1                 42      0.00       0.00                  E13/SFR-1                 19    
     47                 E13/UZF-1                 43      0.00       0.00                  E13/SFR-1                 17    
     48                 E13/UZF-1                 44      0.00       0.00                  E13/SFR-1                 16    
     49                 E13/UZF-1                 45      0.00       0.00                  E13/LAK-1                 2     
     50                 E13/UZF-1                 46      0.00       0.00                  E13/LAK-1                 2     
     51                 E13/UZF-1                 47      0.00       0.00                  E13/LAK-1                 2     
     52                 E13/UZF-1                 48      0.00       0.00                  E13/LAK-1                 2     
     53                 E13/UZF-1                 49      0.00       0.00                  E13/LAK-1                 2     
     54                 E13/UZF-1                 50      0.00       0.00                  E13/SFR-1                 8     
     55                 E13/UZF-1                 51      0.00       0.00                  E13/SFR-1                 20    
     56                 E13/UZF-1                 52      0.00       0.00                  E13/SFR-1                 20    
     57                 E13/UZF-1                 53      0.00       0.00                  E13/SFR-1                 20    
     58                 E13/UZF-1                 54      0.00       0.00                  E13/LAK-1                 2     
     59                 E13/UZF-1                 55      0.00       0.00                  E13/LAK-1                 2     
     60                 E13/UZF-1                 56      0.00       0.00                  E13/LAK-1                 2     
     61                 E13/UZF-1                 57      0.00       0.00                  E13/LAK-1                 2     
     62                 E13/UZF-1                 58      0.00       0.00                  E13/SFR-1                 9     
     63                 E13/UZF-1                 59      0.00       0.00                  E13/SFR-1                 21    
     64                 E13/UZF-1                 60      0.00       0.00                  E13/SFR-1                 21    
     65                 E13/UZF-1                 61      0.00       0.00                  E13/SFR-1                 21    
     66                 E13/UZF-1                 62      0.00       0.00                  E13/LAK-1                 2     
     67                 E13/UZF-1                 63      0.00       0.00                  E13/LAK-1                 2     
     68                 E13/UZF-1                 64      0.00       0.00                  E13/LAK-1                 2     
     69                 E13/UZF-1                 65      0.00       0.00                  E13/LAK-1                 2     
     70                 E13/UZF-1                 66      0.00       0.00                  E13/SFR-1                 23    
     71                 E13/UZF-1                 67      0.00       0.00                  E13/LAK-1                 1     
     72                 E13/UZF-1                 68      0.00       0.00                  E13/LAK-1                 1     
     73                 E13/UZF-1                 69      0.00       0.00                  E13/LAK-1                 1     
     74                 E13/UZF-1                 70      0.00       0.00                  E13/LAK-1                 2     
     75                 E13/UZF-1                 71      0.00       0.00                  E13/LAK-1                 2     
     76                 E13/UZF-1                 72      0.00       0.00                  E13/LAK-1                 2     
     77                 E13/UZF-1                 73      0.00       0.00                  E13/LAK-1                 2     
     78                 E13/UZF-1                 74      0.00       0.00                  E13/LAK-1                 1     
     79                 E13/UZF-1                 75      0.00       0.00                  E13/LAK-1                 1     
     80                 E13/UZF-1                 76      0.00       0.00                  E13/LAK-1                 1     
     81                 E13/UZF-1                 77      0.00       0.00                  E13/LAK-1                 2     
     82                 E13/UZF-1                 78      0.00       0.00                  E13/SFR-1                 9     
     83                 E13/UZF-1                 79      0.00       0.00                  E13/LAK-1                 1     
     84                 E13/UZF-1                 80      0.00       0.00                  E13/SFR-1                 31    
     85                 E13/UZF-1                 81      0.00       0.00                  E13/SFR-1                 30    
     86                 E13/UZF-1                 82      0.00       0.00                  E13/SFR-1                 9     
     87                 E13/UZF-1                 83      0.00       0.00                  E13/SFR-1                 24    
     88                 E13/UZF-1                 84      0.00       0.00                  E13/LAK-1                 1     
     89                 E13/UZF-1                 85      0.00       0.00                  E13/LAK-1                 1     
     90                 E13/UZF-1                 86      7.78       7.78                  E13/SFR-1                 31    
     91                 E13/UZF-1                 87      1.22       1.22                  E13/SFR-1                 30    
     92                 E13/UZF-1                 88      0.00       0.00                  E13/SFR-1                 29    
     93                 E13/UZF-1                 89      0.00       0.00                  E13/SFR-1                 28    
     94                 E13/UZF-1                 90      0.00       0.00                  E13/SFR-1                 27    
     95                 E13/UZF-1                 91      0.00       0.00                  E13/SFR-1                 26    
     96                 E13/UZF-1                 92      0.00       0.00                  E13/SFR-1                 30    
     97                 E13/UZF-1                 93      0.00       0.00                  E13/LAK-1                 2     
     98                 E13/UZF-1                 94      0.00       0.00                  E13/SFR-1                 28    
     99                 E13/UZF-1                 95      0.00       0.00                  E13/SFR-1                 27    
    100                 E13/UZF-1                 96      0.00       0.00                  E13/SFR-1                 26    
    101                 E13/UZF-1                 97      0.00       0.00                  E13/LAK-1                 2     
    102                 E13/UZF-1                 98      0.00       0.00                  E13/LAK-1                 2     
    103                 E13/UZF-1                 99      0.00       0.00                  E13/LAK-1                 2     
    104                 E13/UZF-1                100      0.00       0.00                  E13/LAK-1                 2     
    105                 E13/WEL-1                 1       0.00       0.00                  E13/UZF-1                 38    
    106                 E13/WEL-1                 2       0.00       0.00                  E13/UZF-1                 39    
    107                 E13/WEL-1                 3       0.00       0.00                  E13/UZF-1                 48    
    108                 E13/WEL-1                 4       0.00       0.00                  E13/UZF-1                 49    
    109                 E13/WEL-1                 5       0.00       0.00                  E13/UZF-1                 56    
    110                 E13/WEL-1                 6       0.00       0.00                  E13/UZF-1                 57    
    111                 E13/WEL-1                 7       0.00       0.00                  E13/UZF-1                 64    
    112                 E13/WEL-1                 8       0.00       0.00                  E13/UZF-1                 65    
    113                 E13/WEL-1                 9       0.00       0.00                  E13/UZF-1                 72    
    114                 E13/WEL-1                 10      0.00       0.00                  E13/UZF-1                 73    
 --------------------------------------------------------------------------------------------------------------------------



 SFR PACKAGE (SFR-1) STAGES FOR EACH CONTROL VOLUME   PERIOD     22   STEP       15
 ------------------------------------------------------------------------------------------------------------------------------------------------------
                                                                                                                               STREAMBED    STREAMBED  
 NAME                                       NUMBER   CELLID                  STAGE        DEPTH        WIDTH       GWF HEAD   CONDUCTANCE    GRADIENT  
 ------------------------------------------------------------------------------------------------------------------------------------------------------
 ALLREACHES                                   1      (1,1,1)               1094.3       1.2349       12.000       1021.5       5.40000E-02  1.4116     
 ALLREACHES                                   2      (1,2,2)               1089.3       1.2262       12.000       1022.6       8.40000E-02  1.4087     
 ALLREACHES                                   3      (1,3,3)               1083.6       1.2163       12.000       1023.3       7.20000E-02  1.4054     
 ALLREACHES                                   4      (1,3,4)               1078.6       1.2075       12.000       1023.3       6.66000E-02  1.4025     
 ALLREACHES                                   5      (1,4,5)               1072.8       0.84113      12.000       1023.4       7.80000E-02  1.2804     
 ALLREACHES                                   6      (1,5,6)               1067.3       0.83133      12.000       1022.9       6.00000E-02  1.2771     
 ALLREACHES                                   7      (1,6,6)               1062.6       0.82276      12.000       1020.6       6.00000E-02  1.2743     
 ALLREACHES                                   8      (1,7,6)               1057.9       0.81415      12.000       1020.5       6.00000E-02  1.2714     
 ALLREACHES                                   9      (1,8,6)               1053.2       0.80551      12.000       1020.5       6.00000E-02  1.2685     
 ALLREACHES                                   10     (1,3,5)               1074.6       0.93630      9.6364       1023.1       7.22727E-03  1.4681     
 ALLREACHES                                   11     (1,3,6)               1071.9       0.98022      8.9091       1023.9       6.68182E-03  1.4901     
 ALLREACHES                                   12     (1,3,7)               1069.3       1.0277       8.2182       1027.7       5.54727E-03  1.5139     
 ALLREACHES                                   13     (1,4,8)               1066.5       1.0884       7.4545       1021.3       6.70909E-03  1.5442     
 ALLREACHES                                   14     (1,5,8)               1063.6       1.1639       6.6545       1020.2       4.99091E-03  1.5819     
 ALLREACHES                                   15     (1,6,8)               1061.8       1.2200       6.1455       1020.8       1.84364E-03  1.6100     
 ALLREACHES                                   16     (1,5,10)              1078.4       0.63679      10.000       1022.1       2.50000E-02  1.2123     
 ALLREACHES                                   17     (1,5,9)               1071.5       0.63155      10.000       1022.4       5.00000E-02  1.2105     
 ALLREACHES                                   18     (1,6,8)               1063.8       0.62558      10.000       1020.8       3.50000E-02  1.2085     
 ALLREACHES                                   19     (1,6,8)               1060.0       1.2846       10.000       1020.8       4.00000E-02  1.4282     
 ALLREACHES                                   20     (1,7,7)               1056.9       1.2770       10.000       1020.5       5.00000E-02  1.4257     
 ALLREACHES                                   21     (1,8,7)               1054.1       1.2697       10.000       1020.5       3.50000E-02  1.4232     
 ALLREACHES                                   22     (1,8,6)               1052.1       1.2646       10.000       1020.5       2.50000E-02  1.4215     
 ALLREACHES                                   23     (1,9,6)               1046.6       1.1396       12.000       1020.2       6.00000E-02  1.3799     
 ALLREACHES                                   24     (1,12,7)              1037.7       1.2698       12.000       1022.5       6.00000E-03  1.4233     
 ALLREACHES                                   25     (1,13,7)              1030.2       1.2691       12.000       1025.0       6.60000E-03  1.4230     
 ALLREACHES                                   26     (1,14,9)              1034.8       1.4870       60.000       1029.2       0.60000      1.4957     
 ALLREACHES                                   27     (1,13,8)              1031.5       1.4708       60.000       1026.9       0.60000      1.4903     
 ALLREACHES                                   28     (1,13,7)              1028.1       1.4570       60.000       1025.0       0.60000      1.0371     
 ALLREACHES                                   29     (1,13,6)              1013.9       0.91558      60.000       1019.2       0.60000     -1.7582     
 ALLREACHES                                   30     (1,13,2)              998.33       1.4525       60.000       1004.0       0.60000     -1.8842     
 ALLREACHES                                   31     (1,13,1)              993.37       1.4972       60.000       997.01       0.36000     -1.2128     
 ------------------------------------------------------------------------------------------------------------------------------------------------------



 LAK PACKAGE (LAK-1) STAGES FOR EACH CONTROL VOLUME   PERIOD     22   STEP       15
 --------------------------------------------------------------
   NUMBER      STAGE     SURFACE AREA WETTED AREA     VOLUME   
 --------------------------------------------------------------
     1       1041.3       1.00000E+08  1.01383E+08  4.27705E+09
     2       1001.4       3.00000E+08  3.01633E+08  5.30685E+09
 --------------------------------------------------------------



 HEAD WILL BE SAVED ON UNIT 1026 AT END OF TIME STEP   15, STRESS PERIOD   22


  SFR-1 BUDGET FOR ENTIRE MODEL AT END OF TIME STEP   15, STRESS PERIOD  22
  ------------------------------------------------------------------------------

     CUMULATIVE SFR-1      L**3       RATES FOR THIS TIME STEP      L**3/T
     ------------------                 ------------------------

           IN:                                      IN:
           ---                                      ---
                 GWF =   373842500.8098                   GWF =           7.8663
            RAINFALL =           0.0000              RAINFALL =           0.0000
         EVAPORATION =           0.0000           EVAPORATION =           0.0000
              RUNOFF =           0.0000                RUNOFF =           0.0000
          EXT-INFLOW = 10695960000.0000            EXT-INFLOW =         185.0000
         EXT-OUTFLOW =       1.7046E-02           EXT-OUTFLOW =           0.0000
             STORAGE =           0.0000               STORAGE =           0.0000
            FROM-MVR = 13156599744.9336              FROM-MVR =         235.2856
              TO-MVR =           0.0000                TO-MVR =           0.0000

            TOTAL IN = 24226402245.7605              TOTAL IN =         428.1519

          OUT:                                     OUT:
          ----                                     ----
                 GWF =   679333216.1288                   GWF =          11.0682
            RAINFALL =           0.0000              RAINFALL =           0.0000
         EVAPORATION =           0.0000           EVAPORATION =           0.0000
              RUNOFF =           0.0000                RUNOFF =           0.0000
          EXT-INFLOW =           0.0000            EXT-INFLOW =           0.0000
         EXT-OUTFLOW = 11517955635.7017           EXT-OUTFLOW =         206.5259
             STORAGE =           0.0000               STORAGE =           0.0000
            FROM-MVR =           0.0000              FROM-MVR =           0.0000
              TO-MVR = 12029113393.9299                TO-MVR =         210.5577

           TOTAL OUT = 24226402245.7605             TOTAL OUT =         428.1519

            IN - OUT =       1.5259E-05              IN - OUT =           0.0000

 PERCENT DISCREPANCY =           0.00     PERCENT DISCREPANCY =           0.00



  LAK-1 BUDGET FOR ENTIRE MODEL AT END OF TIME STEP   15, STRESS PERIOD  22
  ------------------------------------------------------------------------------

     CUMULATIVE LAK-1      L**3       RATES FOR THIS TIME STEP      L**3/T
     ------------------                 ------------------------

           IN:                                      IN:
           ---                                      ---
                 GWF =   474219384.9090                   GWF =          10.3869
            RAINFALL =   497217600.0000              RAINFALL =           8.6000
         EVAPORATION =           0.0000           EVAPORATION =           0.0000
              RUNOFF =   260172000.0000                RUNOFF =           4.5000
          EXT-INFLOW =           0.0000            EXT-INFLOW =           0.0000
          WITHDRAWAL =           0.0000            WITHDRAWAL =           0.0000
         EXT-OUTFLOW =           1.5103           EXT-OUTFLOW =           0.0000
             STORAGE =      334885.2259               STORAGE =           0.0000
            CONSTANT =           0.0000              CONSTANT =           0.0000
            FROM-MVR = 12029113393.9299              FROM-MVR =         210.5577
              TO-MVR =           0.0000                TO-MVR =           0.0000

            TOTAL IN = 13261057265.5752              TOTAL IN =         234.0446

          OUT:                                     OUT:
          ----                                     ----
                 GWF =   224489604.5429                   GWF =           3.1818
            RAINFALL =           0.0000              RAINFALL =           0.0000
         EVAPORATION =   248608800.0000           EVAPORATION =           4.3000
              RUNOFF =           0.0000                RUNOFF =           0.0000
          EXT-INFLOW =           0.0000            EXT-INFLOW =           0.0000
          WITHDRAWAL =     6937920.0000            WITHDRAWAL =           0.1200
         EXT-OUTFLOW =           4.3545           EXT-OUTFLOW =       4.9240E-09
             STORAGE =    10942987.2983               STORAGE =           0.1564
            CONSTANT =           0.0000              CONSTANT =           0.0000
            FROM-MVR =           0.0000              FROM-MVR =           0.0000
              TO-MVR = 12770077949.8649                TO-MVR =         226.2863

           TOTAL OUT = 13261057266.0606             TOTAL OUT =         234.0446

            IN - OUT =          -0.4854              IN - OUT =       4.8340E-07

 PERCENT DISCREPANCY =          -0.00     PERCENT DISCREPANCY =           0.00



  UZF-1 BUDGET FOR ENTIRE MODEL AT END OF TIME STEP   15, STRESS PERIOD  22
  ------------------------------------------------------------------------------

     CUMULATIVE UZF-1      L**3       RATES FOR THIS TIME STEP      L**3/T
     ------------------                 ------------------------

           IN:                                      IN:
           ---                                      ---
                 GWF =           0.0000                   GWF =           0.0000
        INFILTRATION =  6004494871.2000          INFILTRATION =          15.3000
             REJ-INF =           0.0000               REJ-INF =           0.0000
                UZET =           0.0000                  UZET =           0.0000
             STORAGE =  3297275608.8918               STORAGE =          94.8365
            FROM-MVR =   201042000.0000              FROM-MVR =           0.0000
      REJ-INF-TO-MVR =           0.0000        REJ-INF-TO-MVR =           0.0000

            TOTAL IN =  9502812480.0918              TOTAL IN =         110.1365

          OUT:                                     OUT:
          ----                                     ----
                 GWF =  2571394234.9855                   GWF =          86.4339
        INFILTRATION =           0.0000          INFILTRATION =           0.0000
             REJ-INF =          64.5682               REJ-INF =       1.0887E-09
                UZET =  1223349341.0908                  UZET =          22.3240
             STORAGE =  5685370037.8915               STORAGE =           1.2786
            FROM-MVR =           0.0000              FROM-MVR =           0.0000
      REJ-INF-TO-MVR =    22698682.2408        REJ-INF-TO-MVR =       1.0000E-01

           TOTAL OUT =  9502812360.7767             TOTAL OUT =         110.1365

            IN - OUT =         119.3151              IN - OUT =       3.5468E-06

 PERCENT DISCREPANCY =           0.00     PERCENT DISCREPANCY =           0.00



  WATER MOVER BUDGET FOR ENTIRE MODEL AT END OF TIME STEP   15, STRESS PERIOD  22
  ------------------------------------------------------------------------------

     CUMULATIVE WATER MOVER      L**3       RATES FOR THIS TIME STEP      L**3/T
     ------------------                 ------------------------

           IN:                                      IN:
           ---                                      ---
               UZF-1 =   386521795.0687                 UZF-1 =           8.9993
               SFR-1 = 12029113393.9299                 SFR-1 =         210.5577
               LAK-1 = 12770077949.8649                 LAK-1 =         226.2863
               WEL-1 =   201042000.0000                 WEL-1 =           0.0000

            TOTAL IN = 25386755138.8635              TOTAL IN =         445.8433

          OUT:                                     OUT:
          ----                                     ----
               UZF-1 =   201042000.0000                 UZF-1 =           0.0000
               SFR-1 = 13156599744.9336                 SFR-1 =         235.2856
               LAK-1 = 12029113393.9299                 LAK-1 =         210.5577
               WEL-1 =           0.0000                 WEL-1 =           0.0000

           TOTAL OUT = 25386755138.8635             TOTAL OUT =         445.8433

            IN - OUT =       3.8147E-06              IN - OUT =       5.6843E-14

 PERCENT DISCREPANCY =           0.00     PERCENT DISCREPANCY =           0.00



  VOLUME BUDGET FOR ENTIRE MODEL AT END OF TIME STEP   15, STRESS PERIOD  22
  ---------------------------------------------------------------------------------------------------

     CUMULATIVE VOLUME      L**3       RATES FOR THIS TIME STEP      L**3/T          PACKAGE NAME    
     ------------------                 ------------------------                     ----------------

           IN:                                      IN:
           ---                                      ---
              STO-SS =      981379.1398                STO-SS =       4.1261E-02     STORAGE                          
              STO-SY =   313038559.1094                STO-SY =           9.7860     STORAGE                          
                 WEL =           0.0000                   WEL =           0.0000     WEL-1                            
          WEL-TO-MVR =           0.0000            WEL-TO-MVR =           0.0000     WEL-1                            
                 GHB =    39410097.1301                   GHB =           0.5991     GHB_0                            
                 SFR =   679333214.3817                   SFR =          11.0682     SFR-1                            
                 LAK =   224489604.5429                   LAK =           3.1818     LAK-1                            
           UZF-GWRCH =  2571394234.9855             UZF-GWRCH =          86.4339     UZF-1                            
             UZF-GWD =           0.0000               UZF-GWD =           0.0000     UZF-1                            
      UZF-GWD TO-MVR =           0.0000        UZF-GWD TO-MVR =           0.0000     UZF-1                            
            UZF-GWET =           0.0000              UZF-GWET =           0.0000     UZF-1                            

            TOTAL IN =  3828647089.2894              TOTAL IN =         111.1104

          OUT:                                     OUT:
          ----                                     ----
              STO-SS =    11666481.1681                STO-SS =           0.2846     STORAGE                          
              STO-SY =  2350079022.6007                STO-SY =          82.6165     STORAGE                          
                 WEL =           0.0000                   WEL =           0.0000     WEL-1                            
          WEL-TO-MVR =   201042000.0000            WEL-TO-MVR =           0.0000     WEL-1                            
                 GHB =    19784960.2887                   GHB =           0.3424     GHB_0                            
                 SFR =   373842823.3864                   SFR =           7.8663     SFR-1                            
                 LAK =   474219384.9090                   LAK =          10.3869     LAK-1                            
           UZF-GWRCH =           0.0000             UZF-GWRCH =           0.0000     UZF-1                            
             UZF-GWD =         117.5250               UZF-GWD =       4.5911E-08     UZF-1                            
      UZF-GWD TO-MVR =   363823112.8279        UZF-GWD TO-MVR =           8.8993     UZF-1                            
            UZF-GWET =    34164599.6839              UZF-GWET =           0.7134     UZF-1                            

           TOTAL OUT =  3828622502.3898             TOTAL OUT =         111.1094

            IN - OUT =       24586.8996              IN - OUT =       9.9811E-04

 PERCENT DISCREPANCY =           0.00     PERCENT DISCREPANCY =           0.00




         TIME SUMMARY AT END OF TIME STEP   15 IN STRESS PERIOD   22
                    SECONDS     MINUTES      HOURS       DAYS        YEARS
                    -----------------------------------------------------------
   TIME STEP LENGTH 1.75200E+05  2920.0      48.667      2.0278     5.55175E-03
 STRESS PERIOD TIME 2.62800E+06  43800.      730.00      30.417     8.32763E-02
         TOTAL TIME 5.78160E+07 9.63600E+05  16060.      669.17      1.8321    


end timestep


start timestep kper="23" kstp="1" mode="normal"


 OUTPUT CONTROL FOR STRESS PERIOD 23 IS REPEATED USING SETTINGS FROM A PREVIOUS STRESS PERIOD.


 STRESS PERIOD 23 IS TRANSIENT


 REUSING MVRS FROM LAST STRESS PERIOD

 REUSING SFRS FROM LAST STRESS PERIOD

 REUSING LAKS FROM LAST STRESS PERIOD

end timestep


start timestep kper="23" kstp="2" mode="normal"


end timestep


start timestep kper="23" kstp="3" mode="normal"


end timestep


start timestep kper="23" kstp="4" mode="normal"


end timestep


start timestep kper="23" kstp="5" mode="normal"


end timestep


start timestep kper="23" kstp="6" mode="normal"


end timestep


start timestep kper="23" kstp="7" mode="normal"


end timestep


start timestep kper="23" kstp="8" mode="normal"


end timestep


start timestep kper="23" kstp="9" mode="normal"


end timestep


start timestep kper="23" kstp="10" mode="normal"


end timestep


start timestep kper="23" kstp="11" mode="normal"


end timestep


start timestep kper="23" kstp="12" mode="normal"


end timestep


start timestep kper="23" kstp="13" mode="normal"


end timestep


start timestep kper="23" kstp="14" mode="normal"


end timestep


start timestep kper="23" kstp="15" mode="normal"

 UBDSV1 SAVING           STO-SS ON UNIT   1025 AT TIME STEP     15, STRESS PERIOD     23
 UBDSV1 SAVING           STO-SY ON UNIT   1025 AT TIME STEP     15, STRESS PERIOD     23
 UBDSV1 SAVING     FLOW-JA-FACE ON UNIT   1025 AT TIME STEP     15, STRESS PERIOD     23
 UBDSV06 SAVING       DATA-SPDIS IN MODEL E13              PACKAGE NPF             CONNECTED TO MODEL E13              PACKAGE NPF              ON UNIT   1025 AT TIME STEP     15, STRESS PERIOD     23
 UBDSV06 SAVING              WEL IN MODEL E13              PACKAGE E13             CONNECTED TO MODEL E13              PACKAGE WEL-1            ON UNIT   1025 AT TIME STEP     15, STRESS PERIOD     23
 UBDSV06 SAVING       WEL-TO-MVR IN MODEL E13              PACKAGE E13             CONNECTED TO MODEL E13              PACKAGE WEL-1            ON UNIT   1025 AT TIME STEP     15, STRESS PERIOD     23
 UBDSV06 SAVING              GHB IN MODEL E13              PACKAGE E13             CONNECTED TO MODEL E13              PACKAGE GHB_0            ON UNIT   1025 AT TIME STEP     15, STRESS PERIOD     23
 UBDSV06 SAVING              SFR IN MODEL E13              PACKAGE E13             CONNECTED TO MODEL E13              PACKAGE SFR-1            ON UNIT   1025 AT TIME STEP     15, STRESS PERIOD     23
 UBDSV06 SAVING              LAK IN MODEL E13              PACKAGE E13             CONNECTED TO MODEL E13              PACKAGE LAK-1            ON UNIT   1025 AT TIME STEP     15, STRESS PERIOD     23
 UBDSV06 SAVING        UZF-GWRCH IN MODEL E13              PACKAGE E13             CONNECTED TO MODEL E13              PACKAGE UZF-1            ON UNIT   1025 AT TIME STEP     15, STRESS PERIOD     23
 UBDSV06 SAVING          UZF-GWD IN MODEL E13              PACKAGE E13             CONNECTED TO MODEL E13              PACKAGE UZF-1            ON UNIT   1025 AT TIME STEP     15, STRESS PERIOD     23
 UBDSV06 SAVING   UZF-GWD TO-MVR IN MODEL E13              PACKAGE E13             CONNECTED TO MODEL E13              PACKAGE UZF-1            ON UNIT   1025 AT TIME STEP     15, STRESS PERIOD     23
 UBDSV06 SAVING         UZF-GWET IN MODEL E13              PACKAGE E13             CONNECTED TO MODEL E13              PACKAGE UZF-1            ON UNIT   1025 AT TIME STEP     15, STRESS PERIOD     23
 UBDSV06 SAVING     FLOW-JA-FACE IN MODEL E13              PACKAGE SFR-1           CONNECTED TO MODEL E13              PACKAGE SFR-1            ON UNIT   1017 AT TIME STEP     15, STRESS PERIOD     23
 UBDSV06 SAVING              GWF IN MODEL E13              PACKAGE SFR-1           CONNECTED TO MODEL E13              PACKAGE E13              ON UNIT   1017 AT TIME STEP     15, STRESS PERIOD     23
 UBDSV06 SAVING         RAINFALL IN MODEL E13              PACKAGE SFR-1           CONNECTED TO MODEL E13              PACKAGE SFR-1            ON UNIT   1017 AT TIME STEP     15, STRESS PERIOD     23
 UBDSV06 SAVING      EVAPORATION IN MODEL E13              PACKAGE SFR-1           CONNECTED TO MODEL E13              PACKAGE SFR-1            ON UNIT   1017 AT TIME STEP     15, STRESS PERIOD     23
 UBDSV06 SAVING           RUNOFF IN MODEL E13              PACKAGE SFR-1           CONNECTED TO MODEL E13              PACKAGE SFR-1            ON UNIT   1017 AT TIME STEP     15, STRESS PERIOD     23
 UBDSV06 SAVING       EXT-INFLOW IN MODEL E13              PACKAGE SFR-1           CONNECTED TO MODEL E13              PACKAGE SFR-1            ON UNIT   1017 AT TIME STEP     15, STRESS PERIOD     23
 UBDSV06 SAVING      EXT-OUTFLOW IN MODEL E13              PACKAGE SFR-1           CONNECTED TO MODEL E13              PACKAGE SFR-1            ON UNIT   1017 AT TIME STEP     15, STRESS PERIOD     23
 UBDSV06 SAVING          STORAGE IN MODEL E13              PACKAGE SFR-1           CONNECTED TO MODEL E13              PACKAGE SFR-1            ON UNIT   1017 AT TIME STEP     15, STRESS PERIOD     23
 UBDSV06 SAVING         FROM-MVR IN MODEL E13              PACKAGE SFR-1           CONNECTED TO MODEL E13              PACKAGE SFR-1            ON UNIT   1017 AT TIME STEP     15, STRESS PERIOD     23
 UBDSV06 SAVING           TO-MVR IN MODEL E13              PACKAGE SFR-1           CONNECTED TO MODEL E13              PACKAGE SFR-1            ON UNIT   1017 AT TIME STEP     15, STRESS PERIOD     23
 UBDSV06 SAVING              GWF IN MODEL E13              PACKAGE LAK-1           CONNECTED TO MODEL E13              PACKAGE E13              ON UNIT   1019 AT TIME STEP     15, STRESS PERIOD     23
 UBDSV06 SAVING         RAINFALL IN MODEL E13              PACKAGE LAK-1           CONNECTED TO MODEL E13              PACKAGE LAK-1            ON UNIT   1019 AT TIME STEP     15, STRESS PERIOD     23
 UBDSV06 SAVING      EVAPORATION IN MODEL E13              PACKAGE LAK-1           CONNECTED TO MODEL E13              PACKAGE LAK-1            ON UNIT   1019 AT TIME STEP     15, STRESS PERIOD     23
 UBDSV06 SAVING           RUNOFF IN MODEL E13              PACKAGE LAK-1           CONNECTED TO MODEL E13              PACKAGE LAK-1            ON UNIT   1019 AT TIME STEP     15, STRESS PERIOD     23
 UBDSV06 SAVING       EXT-INFLOW IN MODEL E13              PACKAGE LAK-1           CONNECTED TO MODEL E13              PACKAGE LAK-1            ON UNIT   1019 AT TIME STEP     15, STRESS PERIOD     23
 UBDSV06 SAVING       WITHDRAWAL IN MODEL E13              PACKAGE LAK-1           CONNECTED TO MODEL E13              PACKAGE LAK-1            ON UNIT   1019 AT TIME STEP     15, STRESS PERIOD     23
 UBDSV06 SAVING      EXT-OUTFLOW IN MODEL E13              PACKAGE LAK-1           CONNECTED TO MODEL E13              PACKAGE LAK-1            ON UNIT   1019 AT TIME STEP     15, STRESS PERIOD     23
 UBDSV06 SAVING          STORAGE IN MODEL E13              PACKAGE LAK-1           CONNECTED TO MODEL E13              PACKAGE LAK-1            ON UNIT   1019 AT TIME STEP     15, STRESS PERIOD     23
 UBDSV06 SAVING         CONSTANT IN MODEL E13              PACKAGE LAK-1           CONNECTED TO MODEL E13              PACKAGE LAK-1            ON UNIT   1019 AT TIME STEP     15, STRESS PERIOD     23
 UBDSV06 SAVING         FROM-MVR IN MODEL E13              PACKAGE LAK-1           CONNECTED TO MODEL E13              PACKAGE LAK-1            ON UNIT   1019 AT TIME STEP     15, STRESS PERIOD     23
 UBDSV06 SAVING           TO-MVR IN MODEL E13              PACKAGE LAK-1           CONNECTED TO MODEL E13              PACKAGE LAK-1            ON UNIT   1019 AT TIME STEP     15, STRESS PERIOD     23
 UBDSV06 SAVING     FLOW-JA-FACE IN MODEL E13              PACKAGE UZF-1           CONNECTED TO MODEL E13              PACKAGE UZF-1            ON UNIT   1021 AT TIME STEP     15, STRESS PERIOD     23
 UBDSV06 SAVING              GWF IN MODEL E13              PACKAGE UZF-1           CONNECTED TO MODEL E13              PACKAGE E13              ON UNIT   1021 AT TIME STEP     15, STRESS PERIOD     23
 UBDSV06 SAVING     INFILTRATION IN MODEL E13              PACKAGE UZF-1           CONNECTED TO MODEL E13              PACKAGE UZF-1            ON UNIT   1021 AT TIME STEP     15, STRESS PERIOD     23
 UBDSV06 SAVING          REJ-INF IN MODEL E13              PACKAGE UZF-1           CONNECTED TO MODEL E13              PACKAGE UZF-1            ON UNIT   1021 AT TIME STEP     15, STRESS PERIOD     23
 UBDSV06 SAVING             UZET IN MODEL E13              PACKAGE UZF-1           CONNECTED TO MODEL E13              PACKAGE UZF-1            ON UNIT   1021 AT TIME STEP     15, STRESS PERIOD     23
 UBDSV06 SAVING          STORAGE IN MODEL E13              PACKAGE UZF-1           CONNECTED TO MODEL E13              PACKAGE UZF-1            ON UNIT   1021 AT TIME STEP     15, STRESS PERIOD     23
 UBDSV06 SAVING         FROM-MVR IN MODEL E13              PACKAGE UZF-1           CONNECTED TO MODEL E13              PACKAGE UZF-1            ON UNIT   1021 AT TIME STEP     15, STRESS PERIOD     23
 UBDSV06 SAVING   REJ-INF-TO-MVR IN MODEL E13              PACKAGE UZF-1           CONNECTED TO MODEL E13              PACKAGE UZF-1            ON UNIT   1021 AT TIME STEP     15, STRESS PERIOD     23
 UBDSV06 SAVING       MOVER-FLOW IN MODEL E13              PACKAGE UZF-1           CONNECTED TO MODEL E13              PACKAGE UZF-1            ON UNIT   1023 AT TIME STEP     15, STRESS PERIOD     23
 UBDSV06 SAVING       MOVER-FLOW IN MODEL E13              PACKAGE UZF-1           CONNECTED TO MODEL E13              PACKAGE SFR-1            ON UNIT   1023 AT TIME STEP     15, STRESS PERIOD     23
 UBDSV06 SAVING       MOVER-FLOW IN MODEL E13              PACKAGE UZF-1           CONNECTED TO MODEL E13              PACKAGE LAK-1            ON UNIT   1023 AT TIME STEP     15, STRESS PERIOD     23
 UBDSV06 SAVING       MOVER-FLOW IN MODEL E13              PACKAGE UZF-1           CONNECTED TO MODEL E13              PACKAGE WEL-1            ON UNIT   1023 AT TIME STEP     15, STRESS PERIOD     23
 UBDSV06 SAVING       MOVER-FLOW IN MODEL E13              PACKAGE SFR-1           CONNECTED TO MODEL E13              PACKAGE UZF-1            ON UNIT   1023 AT TIME STEP     15, STRESS PERIOD     23
 UBDSV06 SAVING       MOVER-FLOW IN MODEL E13              PACKAGE SFR-1           CONNECTED TO MODEL E13              PACKAGE SFR-1            ON UNIT   1023 AT TIME STEP     15, STRESS PERIOD     23
 UBDSV06 SAVING       MOVER-FLOW IN MODEL E13              PACKAGE SFR-1           CONNECTED TO MODEL E13              PACKAGE LAK-1            ON UNIT   1023 AT TIME STEP     15, STRESS PERIOD     23
 UBDSV06 SAVING       MOVER-FLOW IN MODEL E13              PACKAGE SFR-1           CONNECTED TO MODEL E13              PACKAGE WEL-1            ON UNIT   1023 AT TIME STEP     15, STRESS PERIOD     23
 UBDSV06 SAVING       MOVER-FLOW IN MODEL E13              PACKAGE LAK-1           CONNECTED TO MODEL E13              PACKAGE UZF-1            ON UNIT   1023 AT TIME STEP     15, STRESS PERIOD     23
 UBDSV06 SAVING       MOVER-FLOW IN MODEL E13              PACKAGE LAK-1           CONNECTED TO MODEL E13              PACKAGE SFR-1            ON UNIT   1023 AT TIME STEP     15, STRESS PERIOD     23
 UBDSV06 SAVING       MOVER-FLOW IN MODEL E13              PACKAGE LAK-1           CONNECTED TO MODEL E13              PACKAGE LAK-1            ON UNIT   1023 AT TIME STEP     15, STRESS PERIOD     23
 UBDSV06 SAVING       MOVER-FLOW IN MODEL E13              PACKAGE LAK-1           CONNECTED TO MODEL E13              PACKAGE WEL-1            ON UNIT   1023 AT TIME STEP     15, STRESS PERIOD     23
 UBDSV06 SAVING       MOVER-FLOW IN MODEL E13              PACKAGE WEL-1           CONNECTED TO MODEL E13              PACKAGE UZF-1            ON UNIT   1023 AT TIME STEP     15, STRESS PERIOD     23
 UBDSV06 SAVING       MOVER-FLOW IN MODEL E13              PACKAGE WEL-1           CONNECTED TO MODEL E13              PACKAGE SFR-1            ON UNIT   1023 AT TIME STEP     15, STRESS PERIOD     23
 UBDSV06 SAVING       MOVER-FLOW IN MODEL E13              PACKAGE WEL-1           CONNECTED TO MODEL E13              PACKAGE LAK-1            ON UNIT   1023 AT TIME STEP     15, STRESS PERIOD     23
 UBDSV06 SAVING       MOVER-FLOW IN MODEL E13              PACKAGE WEL-1           CONNECTED TO MODEL E13              PACKAGE WEL-1            ON UNIT   1023 AT TIME STEP     15, STRESS PERIOD     23

 WEL PACKAGE (WEL-1) FLOW RATES   PERIOD     23   STEP       15
 -----------------------------------------------
   NUMBER   CELLID                    RATE      
 -----------------------------------------------
     1      (1,6,4)               0.0000000     
     2      (1,6,5)               0.0000000     
     3      (1,7,4)               0.0000000     
     4      (1,7,5)               0.0000000     
     5      (1,8,4)               0.0000000     
     6      (1,8,5)               0.0000000     
     7      (1,9,4)               0.0000000     
     8      (1,9,5)               0.0000000     
     9      (1,10,4)              0.0000000     
     10     (1,10,5)              0.0000000     
 -----------------------------------------------




 WEL PACKAGE (WEL-1) FLOW RATES TO-MVR   PERIOD     23   STEP       15
 -----------------------------------------------
   NUMBER   CELLID                    RATE      
 -----------------------------------------------
     1      (1,6,4)               0.0000000     
     2      (1,6,5)               0.0000000     
     3      (1,7,4)               0.0000000     
     4      (1,7,5)               0.0000000     
     5      (1,8,4)               0.0000000     
     6      (1,8,5)               0.0000000     
     7      (1,9,4)               0.0000000     
     8      (1,9,5)               0.0000000     
     9      (1,10,4)              0.0000000     
     10     (1,10,5)              0.0000000     
 -----------------------------------------------




 SFR PACKAGE (SFR-1) FLOW RATES   PERIOD     23   STEP       15
 ----------------------------------------------------------------------------------------
   NUMBER   CELLID                    RATE       NAME                                    
 ----------------------------------------------------------------------------------------
     1      (1,1,1)               0.22868377     ALLREACHES                              
     2      (1,2,2)               0.35499870     ALLREACHES                              
     3      (1,3,3)               0.30357347     ALLREACHES                              
     4      (1,3,4)               0.28021936     ALLREACHES                              
     5      (1,4,5)               0.29960805     ALLREACHES                              
     6      (1,5,6)               0.22987955     ALLREACHES                              
     7      (1,6,6)               0.22936563     ALLREACHES                              
     8      (1,7,6)               0.22884928     ALLREACHES                              
     9      (1,8,6)               0.22833044     ALLREACHES                              
     10     (1,3,5)               2.12214188E-02 ALLREACHES                              
     11     (1,3,6)               1.99133007E-02 ALLREACHES                              
     12     (1,3,7)               1.67956407E-02 ALLREACHES                              
     13     (1,4,8)               2.07205450E-02 ALLREACHES                              
     14     (1,5,8)               1.57905563E-02 ALLREACHES                              
     15     (1,6,8)               5.93648362E-03 ALLREACHES                              
     16     (1,5,10)              9.09197693E-02 ALLREACHES                              
     17     (1,5,9)               0.18157734     ALLREACHES                              
     18     (1,6,8)               0.12689514     ALLREACHES                              
     19     (1,6,8)               0.17138468     ALLREACHES                              
     20     (1,7,7)               0.21384773     ALLREACHES                              
     21     (1,8,7)               0.14943953     ALLREACHES                              
     22     (1,8,6)               0.10661428     ALLREACHES                              
     23     (1,9,6)               0.24837387     ALLREACHES                              
     24     (1,12,7)              2.56278982E-02 ALLREACHES                              
     25     (1,13,7)              2.81866457E-02 ALLREACHES                              
     26     (1,14,9)              2.6922030      ALLREACHES                              
     27     (1,13,8)              2.4572651      ALLREACHES                              
     28     (1,13,7)              1.8322360      ALLREACHES                              
     29     (1,13,6)             -3.1162335      ALLREACHES                              
     30     (1,13,2)             -3.3910695      ALLREACHES                              
     31     (1,13,1)             -1.3096781      ALLREACHES                              
 ----------------------------------------------------------------------------------------




 LAK PACKAGE (LAK-1) FLOW RATES   PERIOD     23   STEP       15
 -----------------------------------------------
   NUMBER   CELLID                    RATE      
 -----------------------------------------------
     1      (1,9,7)               7.45277320E-03
     2      (1,10,6)              9.45421350E-03
     3      (2,10,7)              0.79320813    
     4      (1,9,8)               4.60514935E-03
     5      (1,10,9)              1.06527537E-04
     6      (2,10,8)              0.75967119    
     7      (1,11,6)              1.02786644E-02
     8      (1,12,7)              9.20622324E-03
     9      (2,11,7)              0.79168607    
     10     (1,11,9)              2.63461057E-03
     11     (1,12,8)              8.65769673E-03
     12     (2,11,8)              0.75936689    
     13     (1,10,3)             -2.19918100E-03
     14     (1,11,2)             -2.06885285E-03
     15     (2,11,3)             -0.84820543    
     16     (1,10,4)             -2.21317088E-03
     17     (2,11,4)             -0.86469103    
     18     (1,10,5)             -5.05455981E-03
     19     (1,11,6)             -5.37449511E-03
     20     (2,11,5)             -0.88727611    
     21     (1,12,2)             -5.64983390E-03
     22     (2,12,3)             -0.81143505    
     23     (2,12,4)             -0.84712357    
     24     (1,12,6)             -7.24890395E-03
     25     (2,12,5)             -0.88032015    
     26     (1,13,2)             -1.26796218E-03
     27     (2,13,3)             -0.80109385    
     28     (2,13,4)             -0.84862652    
     29     (1,13,6)             -7.43342388E-03
     30     (2,13,5)             -0.88637283    
     31     (1,14,2)             -5.83106504E-03
     32     (1,15,3)              0.0000000     
     33     (2,14,3)             -0.82737757    
     34     (1,15,4)              0.0000000     
     35     (2,14,4)             -0.86752185    
     36     (1,14,6)             -5.72672771E-03
     37     (1,15,5)              0.0000000     
     38     (2,14,5)             -0.90234491    
 -----------------------------------------------




 SFR-1 PACKAGE - SUMMARY OF FLOWS FOR EACH CONTROL VOLUME   PERIOD     23   STEP       15
 --------------------------------------------------------------------------------------------------------------------------------------------------------------------------------------------------------
                                                                                                                                                                                               PERCENT   
   NUMBER   CELLID                  INFLOW      OUTFLOW        GWF        RAINFALL   EVAPORATION     RUNOFF     EXT INFLOW  EXT OUTFLOW    STORAGE      FROM MVR      TO MVR      IN - OUT    DIFFERENCE 
 --------------------------------------------------------------------------------------------------------------------------------------------------------------------------------------------------------
     1      (1,1,1)               0.0000      -24.771      -0.22868      0.0000       0.0000       0.0000       25.000       0.0000       0.0000       0.0000       0.0000       0.0000       0.0000     
     2      (1,2,2)               24.771      -24.416      -0.35500      0.0000       0.0000       0.0000       0.0000       0.0000       0.0000       0.0000       0.0000       0.0000       0.0000     
     3      (1,3,3)               24.416      -24.113      -0.30357      0.0000       0.0000       0.0000       0.0000       0.0000       0.0000       0.0000       0.0000       0.0000       0.0000     
     4      (1,3,4)               24.113      -23.833      -0.28022      0.0000       0.0000       0.0000       0.0000       0.0000       0.0000       0.0000       0.0000       0.0000       0.0000     
     5      (1,4,5)               13.833      -13.533      -0.29961      0.0000       0.0000       0.0000       0.0000       0.0000       0.0000       0.0000       0.0000       0.0000       0.0000     
     6      (1,5,6)               13.533      -13.303      -0.22988      0.0000       0.0000       0.0000       0.0000       0.0000       0.0000       0.0000       0.0000       0.0000       0.0000     
     7      (1,6,6)               13.303      -13.074      -0.22937      0.0000       0.0000       0.0000       0.0000       0.0000       0.0000       0.0000       0.0000       0.0000       0.0000     
     8      (1,7,6)               13.074      -12.845      -0.22885      0.0000       0.0000       0.0000       0.0000       0.0000       0.0000       0.0000       0.0000       0.0000       0.0000     
     9      (1,8,6)               12.845      -12.616      -0.22833      0.0000       0.0000       0.0000       0.0000       0.0000       0.0000       0.0000       0.0000       0.0000       0.0000     
     10     (1,3,5)               10.000      -9.9788      -2.12214E-02  0.0000       0.0000       0.0000       0.0000       0.0000       0.0000       0.0000       0.0000       0.0000       0.0000     
     11     (1,3,6)               9.9788      -9.9589      -1.99133E-02  0.0000       0.0000       0.0000       0.0000       0.0000       0.0000       0.0000       0.0000       0.0000       0.0000     
     12     (1,3,7)               9.9589      -9.9421      -1.67956E-02  0.0000       0.0000       0.0000       0.0000       0.0000       0.0000       0.0000       0.0000       0.0000       0.0000     
     13     (1,4,8)               9.9421      -9.9213      -2.07205E-02  0.0000       0.0000       0.0000       0.0000       0.0000       0.0000       0.0000       0.0000       0.0000       0.0000     
     14     (1,5,8)               9.9213      -9.9056      -1.57906E-02  0.0000       0.0000       0.0000       0.0000       0.0000       0.0000       0.0000       0.0000       0.0000       0.0000     
     15     (1,6,8)               9.9056      -9.8996      -5.93648E-03  0.0000       0.0000       0.0000       0.0000       0.0000       0.0000       0.0000       0.0000       0.0000       0.0000     
     16     (1,5,10)              0.0000      -9.9091      -9.09198E-02  0.0000       0.0000       0.0000       10.000       0.0000       0.0000       0.0000       0.0000       0.0000       0.0000     
     17     (1,5,9)               9.9091      -9.7275      -0.18158      0.0000       0.0000       0.0000       0.0000       0.0000       0.0000       0.0000       0.0000       0.0000       0.0000     
     18     (1,6,8)               9.7275      -9.6006      -0.12690      0.0000       0.0000       0.0000       0.0000       0.0000       0.0000       0.0000       0.0000       0.0000       0.0000     
     19     (1,6,8)               19.500      -19.329      -0.17138      0.0000       0.0000       0.0000       0.0000       0.0000       0.0000       0.0000       0.0000       0.0000       0.0000     
     20     (1,7,7)               19.329      -19.115      -0.21385      0.0000       0.0000       0.0000       0.0000       0.0000       0.0000       0.0000       0.0000       0.0000       0.0000     
     21     (1,8,7)               19.115      -18.966      -0.14944      0.0000       0.0000       0.0000       0.0000       0.0000       0.0000       0.0000       0.0000       0.0000       0.0000     
     22     (1,8,6)               18.966      -18.859      -0.10661      0.0000       0.0000       0.0000       0.0000       0.0000       0.0000       0.0000       0.0000       0.0000       0.0000     
     23     (1,9,6)               31.475       0.0000      -0.24837      0.0000       0.0000       0.0000       0.0000       0.0000       0.0000       0.0000      -31.227       0.0000       0.0000     
     24     (1,12,7)              0.0000      -33.504      -2.56279E-02  0.0000       0.0000       0.0000       0.0000       0.0000       0.0000       33.530       0.0000       0.0000       0.0000     
     25     (1,13,7)              33.504      -33.476      -2.81866E-02  0.0000       0.0000       0.0000       0.0000       0.0000       0.0000       0.0000       0.0000       0.0000       0.0000     
     26     (1,14,9)              0.0000      -147.31      -2.6922       0.0000       0.0000       0.0000       150.00       0.0000       0.0000       0.0000       0.0000       0.0000       0.0000     
     27     (1,13,8)              147.31      -144.85      -2.4573       0.0000       0.0000       0.0000       0.0000       0.0000       0.0000       0.0000       0.0000       0.0000       0.0000     
     28     (1,13,7)              144.85      -143.02      -1.8322       0.0000       0.0000       0.0000       0.0000       0.0000       0.0000       0.0000       0.0000       0.0000       0.0000     
     29     (1,13,6)              176.49       0.0000       3.1162       0.0000       0.0000       0.0000       0.0000      -5.53983E-08  0.0000       0.0000      -179.61       0.0000       0.0000     
     30     (1,13,2)              0.0000      -197.55       3.3911       0.0000       0.0000       0.0000       0.0000       0.0000       0.0000       194.16       0.0000       0.0000       0.0000     
     31     (1,13,1)              197.55       0.0000       1.3097       0.0000       0.0000       0.0000       0.0000      -206.60       0.0000       7.7478       0.0000       0.0000       0.0000     
 --------------------------------------------------------------------------------------------------------------------------------------------------------------------------------------------------------



 LAK-1 PACKAGE - SUMMARY OF FLOWS FOR EACH CONTROL VOLUME   PERIOD     23   STEP       15
 -----------------------------------------------------------------------------------------------------------------------------------------------------------------------------------
                                                                                                                                                                          PERCENT   
   NUMBER       GWF        RAINFALL   EVAPORATION     RUNOFF     EXT INFLOW   WITHDRAWAL  EXT OUTFLOW    STORAGE      CONSTANT     FROM MVR      TO MVR      IN - OUT    DIFFERENCE 
 -----------------------------------------------------------------------------------------------------------------------------------------------------------------------------------
     1      -3.1563       5.0000      -1.0000       1.5000       0.0000       0.0000       0.0000      -4.09246E-02  0.0000       31.227      -33.530       3.62370E-07  9.60504E-07
     2       10.322       3.6000      -3.3000       3.0000       0.0000      -0.12000     -3.73217E-07 -0.10784      0.0000       179.61      -193.01      -1.34609E-07 -6.84920E-08
 -----------------------------------------------------------------------------------------------------------------------------------------------------------------------------------



 WATER MOVER PACKAGE (MVR) FLOW RATES   PERIOD     23   STEP       15
 --------------------------------------------------------------------------------------------------------------------------
                                               PROVIDER  AVAILABLE   PROVIDED                                     RECEIVER 
   NUMBER           PROVIDER LOCATION             ID        RATE       RATE            RECEIVER LOCATION             ID    
 --------------------------------------------------------------------------------------------------------------------------
     1                  E13/SFR-1                 23      31.2       31.2                  E13/LAK-1                 1     
     2                  E13/LAK-1                 1       33.5       33.5                  E13/SFR-1                 24    
     3                  E13/SFR-1                 29      180.       180.                  E13/LAK-1                 2     
     4                  E13/LAK-1                 2       193.       193.                  E13/SFR-1                 30    
     5                  E13/UZF-1                 1       0.00       0.00                  E13/SFR-1                 1     
     6                  E13/UZF-1                 2       0.00       0.00                  E13/SFR-1                 2     
     7                  E13/UZF-1                 3       0.00       0.00                  E13/SFR-1                 2     
     8                  E13/UZF-1                 4       0.00       0.00                  E13/SFR-1                 2     
     9                  E13/UZF-1                 5       0.00       0.00                  E13/SFR-1                 3     
     10                 E13/UZF-1                 6       0.00       0.00                  E13/SFR-1                 11    
     11                 E13/UZF-1                 7       0.00       0.00                  E13/SFR-1                 12    
     12                 E13/UZF-1                 8       0.00       0.00                  E13/SFR-1                 12    
     13                 E13/UZF-1                 9       0.00       0.00                  E13/SFR-1                 2     
     14                 E13/UZF-1                 10      0.00       0.00                  E13/SFR-1                 3     
     15                 E13/UZF-1                 11      0.00       0.00                  E13/SFR-1                 4     
     16                 E13/UZF-1                 12      0.00       0.00                  E13/SFR-1                 10    
     17                 E13/UZF-1                 13      0.00       0.00                  E13/SFR-1                 11    
     18                 E13/UZF-1                 14      0.00       0.00                  E13/SFR-1                 12    
     19                 E13/UZF-1                 15      0.00       0.00                  E13/SFR-1                 13    
     20                 E13/UZF-1                 16      0.00       0.00                  E13/LAK-1                 2     
     21                 E13/UZF-1                 17      0.00       0.00                  E13/LAK-1                 2     
     22                 E13/UZF-1                 18      0.00       0.00                  E13/SFR-1                 3     
     23                 E13/UZF-1                 19      0.00       0.00                  E13/SFR-1                 4     
     24                 E13/UZF-1                 20      0.00       0.00                  E13/SFR-1                 5     
     25                 E13/UZF-1                 21      0.00       0.00                  E13/SFR-1                 6     
     26                 E13/UZF-1                 22      0.00       0.00                  E13/SFR-1                 6     
     27                 E13/UZF-1                 23      0.00       0.00                  E13/SFR-1                 13    
     28                 E13/UZF-1                 24      0.00       0.00                  E13/SFR-1                 17    
     29                 E13/UZF-1                 25      0.00       0.00                  E13/LAK-1                 2     
     30                 E13/UZF-1                 26      0.00       0.00                  E13/LAK-1                 2     
     31                 E13/UZF-1                 27      0.00       0.00                  E13/LAK-1                 2     
     32                 E13/UZF-1                 28      0.00       0.00                  E13/LAK-1                 2     
     33                 E13/UZF-1                 29      0.00       0.00                  E13/SFR-1                 5     
     34                 E13/UZF-1                 30      0.00       0.00                  E13/SFR-1                 6     
     35                 E13/UZF-1                 31      0.00       0.00                  E13/SFR-1                 6     
     36                 E13/UZF-1                 32      0.00       0.00                  E13/SFR-1                 14    
     37                 E13/UZF-1                 33      0.00       0.00                  E13/SFR-1                 17    
     38                 E13/UZF-1                 34      0.00       0.00                  E13/SFR-1                 16    
     39                 E13/UZF-1                 35      0.00       0.00                  E13/LAK-1                 2     
     40                 E13/UZF-1                 36      0.00       0.00                  E13/LAK-1                 2     
     41                 E13/UZF-1                 37      0.00       0.00                  E13/LAK-1                 2     
     42                 E13/UZF-1                 38      0.00       0.00                  E13/LAK-1                 2     
     43                 E13/UZF-1                 39      0.00       0.00                  E13/LAK-1                 2     
     44                 E13/UZF-1                 40      0.00       0.00                  E13/SFR-1                 7     
     45                 E13/UZF-1                 41      0.00       0.00                  E13/SFR-1                 7     
     46                 E13/UZF-1                 42      0.00       0.00                  E13/SFR-1                 19    
     47                 E13/UZF-1                 43      0.00       0.00                  E13/SFR-1                 17    
     48                 E13/UZF-1                 44      0.00       0.00                  E13/SFR-1                 16    
     49                 E13/UZF-1                 45      0.00       0.00                  E13/LAK-1                 2     
     50                 E13/UZF-1                 46      0.00       0.00                  E13/LAK-1                 2     
     51                 E13/UZF-1                 47      0.00       0.00                  E13/LAK-1                 2     
     52                 E13/UZF-1                 48      0.00       0.00                  E13/LAK-1                 2     
     53                 E13/UZF-1                 49      0.00       0.00                  E13/LAK-1                 2     
     54                 E13/UZF-1                 50      0.00       0.00                  E13/SFR-1                 8     
     55                 E13/UZF-1                 51      0.00       0.00                  E13/SFR-1                 20    
     56                 E13/UZF-1                 52      0.00       0.00                  E13/SFR-1                 20    
     57                 E13/UZF-1                 53      0.00       0.00                  E13/SFR-1                 20    
     58                 E13/UZF-1                 54      0.00       0.00                  E13/LAK-1                 2     
     59                 E13/UZF-1                 55      0.00       0.00                  E13/LAK-1                 2     
     60                 E13/UZF-1                 56      0.00       0.00                  E13/LAK-1                 2     
     61                 E13/UZF-1                 57      0.00       0.00                  E13/LAK-1                 2     
     62                 E13/UZF-1                 58      0.00       0.00                  E13/SFR-1                 9     
     63                 E13/UZF-1                 59      0.00       0.00                  E13/SFR-1                 21    
     64                 E13/UZF-1                 60      0.00       0.00                  E13/SFR-1                 21    
     65                 E13/UZF-1                 61      0.00       0.00                  E13/SFR-1                 21    
     66                 E13/UZF-1                 62      0.00       0.00                  E13/LAK-1                 2     
     67                 E13/UZF-1                 63      0.00       0.00                  E13/LAK-1                 2     
     68                 E13/UZF-1                 64      0.00       0.00                  E13/LAK-1                 2     
     69                 E13/UZF-1                 65      0.00       0.00                  E13/LAK-1                 2     
     70                 E13/UZF-1                 66      0.00       0.00                  E13/SFR-1                 23    
     71                 E13/UZF-1                 67      0.00       0.00                  E13/LAK-1                 1     
     72                 E13/UZF-1                 68      0.00       0.00                  E13/LAK-1                 1     
     73                 E13/UZF-1                 69      0.00       0.00                  E13/LAK-1                 1     
     74                 E13/UZF-1                 70      0.00       0.00                  E13/LAK-1                 2     
     75                 E13/UZF-1                 71      0.00       0.00                  E13/LAK-1                 2     
     76                 E13/UZF-1                 72      0.00       0.00                  E13/LAK-1                 2     
     77                 E13/UZF-1                 73      0.00       0.00                  E13/LAK-1                 2     
     78                 E13/UZF-1                 74      0.00       0.00                  E13/LAK-1                 1     
     79                 E13/UZF-1                 75      0.00       0.00                  E13/LAK-1                 1     
     80                 E13/UZF-1                 76      0.00       0.00                  E13/LAK-1                 1     
     81                 E13/UZF-1                 77      0.00       0.00                  E13/LAK-1                 2     
     82                 E13/UZF-1                 78      0.00       0.00                  E13/SFR-1                 9     
     83                 E13/UZF-1                 79      0.00       0.00                  E13/LAK-1                 1     
     84                 E13/UZF-1                 80      0.00       0.00                  E13/SFR-1                 31    
     85                 E13/UZF-1                 81      0.00       0.00                  E13/SFR-1                 30    
     86                 E13/UZF-1                 82      0.00       0.00                  E13/SFR-1                 9     
     87                 E13/UZF-1                 83      0.00       0.00                  E13/SFR-1                 24    
     88                 E13/UZF-1                 84      0.00       0.00                  E13/LAK-1                 1     
     89                 E13/UZF-1                 85      0.00       0.00                  E13/LAK-1                 1     
     90                 E13/UZF-1                 86      7.75       7.75                  E13/SFR-1                 31    
     91                 E13/UZF-1                 87      1.15       1.15                  E13/SFR-1                 30    
     92                 E13/UZF-1                 88      0.00       0.00                  E13/SFR-1                 29    
     93                 E13/UZF-1                 89      0.00       0.00                  E13/SFR-1                 28    
     94                 E13/UZF-1                 90      0.00       0.00                  E13/SFR-1                 27    
     95                 E13/UZF-1                 91      0.00       0.00                  E13/SFR-1                 26    
     96                 E13/UZF-1                 92      0.00       0.00                  E13/SFR-1                 30    
     97                 E13/UZF-1                 93      0.00       0.00                  E13/LAK-1                 2     
     98                 E13/UZF-1                 94      0.00       0.00                  E13/SFR-1                 28    
     99                 E13/UZF-1                 95      0.00       0.00                  E13/SFR-1                 27    
    100                 E13/UZF-1                 96      0.00       0.00                  E13/SFR-1                 26    
    101                 E13/UZF-1                 97      0.00       0.00                  E13/LAK-1                 2     
    102                 E13/UZF-1                 98      0.00       0.00                  E13/LAK-1                 2     
    103                 E13/UZF-1                 99      0.00       0.00                  E13/LAK-1                 2     
    104                 E13/UZF-1                100      0.00       0.00                  E13/LAK-1                 2     
    105                 E13/WEL-1                 1       0.00       0.00                  E13/UZF-1                 38    
    106                 E13/WEL-1                 2       0.00       0.00                  E13/UZF-1                 39    
    107                 E13/WEL-1                 3       0.00       0.00                  E13/UZF-1                 48    
    108                 E13/WEL-1                 4       0.00       0.00                  E13/UZF-1                 49    
    109                 E13/WEL-1                 5       0.00       0.00                  E13/UZF-1                 56    
    110                 E13/WEL-1                 6       0.00       0.00                  E13/UZF-1                 57    
    111                 E13/WEL-1                 7       0.00       0.00                  E13/UZF-1                 64    
    112                 E13/WEL-1                 8       0.00       0.00                  E13/UZF-1                 65    
    113                 E13/WEL-1                 9       0.00       0.00                  E13/UZF-1                 72    
    114                 E13/WEL-1                 10      0.00       0.00                  E13/UZF-1                 73    
 --------------------------------------------------------------------------------------------------------------------------



 SFR PACKAGE (SFR-1) STAGES FOR EACH CONTROL VOLUME   PERIOD     23   STEP       15
 ------------------------------------------------------------------------------------------------------------------------------------------------------
                                                                                                                               STREAMBED    STREAMBED  
 NAME                                       NUMBER   CELLID                  STAGE        DEPTH        WIDTH       GWF HEAD   CONDUCTANCE    GRADIENT  
 ------------------------------------------------------------------------------------------------------------------------------------------------------
 ALLREACHES                                   1      (1,1,1)               1094.3       1.2349       12.000       1022.1       5.40000E-02  1.4116     
 ALLREACHES                                   2      (1,2,2)               1089.3       1.2262       12.000       1023.2       8.40000E-02  1.4087     
 ALLREACHES                                   3      (1,3,3)               1083.6       1.2163       12.000       1023.9       7.20000E-02  1.4054     
 ALLREACHES                                   4      (1,3,4)               1078.6       1.2075       12.000       1024.0       6.66000E-02  1.4025     
 ALLREACHES                                   5      (1,4,5)               1072.8       0.84113      12.000       1024.0       7.80000E-02  1.2804     
 ALLREACHES                                   6      (1,5,6)               1067.3       0.83133      12.000       1023.5       6.00000E-02  1.2771     
 ALLREACHES                                   7      (1,6,6)               1062.6       0.82276      12.000       1021.0       6.00000E-02  1.2743     
 ALLREACHES                                   8      (1,7,6)               1057.9       0.81415      12.000       1020.9       6.00000E-02  1.2714     
 ALLREACHES                                   9      (1,8,6)               1053.2       0.80551      12.000       1020.9       6.00000E-02  1.2685     
 ALLREACHES                                   10     (1,3,5)               1074.6       0.93630      9.6364       1023.6       7.22727E-03  1.4681     
 ALLREACHES                                   11     (1,3,6)               1071.9       0.98022      8.9091       1024.2       6.68182E-03  1.4901     
 ALLREACHES                                   12     (1,3,7)               1069.3       1.0277       8.2182       1027.6       5.54727E-03  1.5139     
 ALLREACHES                                   13     (1,4,8)               1066.5       1.0884       7.4545       1021.9       6.70909E-03  1.5442     
 ALLREACHES                                   14     (1,5,8)               1063.6       1.1639       6.6545       1020.6       4.99091E-03  1.5819     
 ALLREACHES                                   15     (1,6,8)               1061.8       1.2200       6.1455       1021.2       1.84364E-03  1.6100     
 ALLREACHES                                   16     (1,5,10)              1078.4       0.63679      10.000       1022.7       2.50000E-02  1.2123     
 ALLREACHES                                   17     (1,5,9)               1071.5       0.63155      10.000       1023.1       5.00000E-02  1.2105     
 ALLREACHES                                   18     (1,6,8)               1063.8       0.62558      10.000       1021.2       3.50000E-02  1.2085     
 ALLREACHES                                   19     (1,6,8)               1060.0       1.2846       10.000       1021.2       4.00000E-02  1.4282     
 ALLREACHES                                   20     (1,7,7)               1056.9       1.2770       10.000       1021.0       5.00000E-02  1.4257     
 ALLREACHES                                   21     (1,8,7)               1054.1       1.2697       10.000       1020.9       3.50000E-02  1.4232     
 ALLREACHES                                   22     (1,8,6)               1052.1       1.2646       10.000       1020.9       2.50000E-02  1.4215     
 ALLREACHES                                   23     (1,9,6)               1046.6       1.1396       12.000       1020.6       6.00000E-02  1.3799     
 ALLREACHES                                   24     (1,12,7)              1037.7       1.2713       12.000       1022.8       6.00000E-03  1.4238     
 ALLREACHES                                   25     (1,13,7)              1030.2       1.2707       12.000       1025.1       6.60000E-03  1.4236     
 ALLREACHES                                   26     (1,14,9)              1034.8       1.4870       60.000       1029.6       0.60000      1.4957     
 ALLREACHES                                   27     (1,13,8)              1031.5       1.4715       60.000       1027.4       0.60000      1.3651     
 ALLREACHES                                   28     (1,13,7)              1028.1       1.4585       60.000       1025.1       0.60000      1.0179     
 ALLREACHES                                   29     (1,13,6)              1013.9       0.91652      60.000       1019.1       0.60000     -1.7312     
 ALLREACHES                                   30     (1,13,2)              998.33       1.4530       60.000       1004.0       0.60000     -1.8839     
 ALLREACHES                                   31     (1,13,1)              993.37       1.4975       60.000       997.01       0.36000     -1.2127     
 ------------------------------------------------------------------------------------------------------------------------------------------------------



 LAK PACKAGE (LAK-1) STAGES FOR EACH CONTROL VOLUME   PERIOD     23   STEP       15
 --------------------------------------------------------------
   NUMBER      STAGE     SURFACE AREA WETTED AREA     VOLUME   
 --------------------------------------------------------------
     1       1041.3       1.00000E+08  1.01383E+08  4.27720E+09
     2       1001.4       3.00000E+08  3.01640E+08  5.30709E+09
 --------------------------------------------------------------



 HEAD WILL BE SAVED ON UNIT 1026 AT END OF TIME STEP   15, STRESS PERIOD   23


  SFR-1 BUDGET FOR ENTIRE MODEL AT END OF TIME STEP   15, STRESS PERIOD  23
  ------------------------------------------------------------------------------

     CUMULATIVE SFR-1      L**3       RATES FOR THIS TIME STEP      L**3/T
     ------------------                 ------------------------

           IN:                                      IN:
           ---                                      ---
                 GWF =   394437352.1924                   GWF =           7.8170
            RAINFALL =           0.0000              RAINFALL =           0.0000
         EVAPORATION =           0.0000           EVAPORATION =           0.0000
              RUNOFF =           0.0000                RUNOFF =           0.0000
          EXT-INFLOW = 11182140000.0000            EXT-INFLOW =         185.0000
         EXT-OUTFLOW =       1.7046E-02           EXT-OUTFLOW =           0.0000
             STORAGE =           0.0000               STORAGE =           0.0000
            FROM-MVR = 13775062717.9698              FROM-MVR =         235.4327
              TO-MVR =           0.0000                TO-MVR =           0.0000

            TOTAL IN = 25351640070.1792              TOTAL IN =         428.2497

          OUT:                                     OUT:
          ----                                     ----
                 GWF =   708082104.7920                   GWF =          10.8085
            RAINFALL =           0.0000              RAINFALL =           0.0000
         EVAPORATION =           0.0000           EVAPORATION =           0.0000
              RUNOFF =           0.0000                RUNOFF =           0.0000
          EXT-INFLOW =           0.0000            EXT-INFLOW =           0.0000
         EXT-OUTFLOW = 12060730938.1648           EXT-OUTFLOW =         206.6036
             STORAGE =           0.0000               STORAGE =           0.0000
            FROM-MVR =           0.0000              FROM-MVR =           0.0000
              TO-MVR = 12582827027.2224                TO-MVR =         210.8376

           TOTAL OUT = 25351640070.1792             TOTAL OUT =         428.2497

            IN - OUT =       2.2888E-05              IN - OUT =       5.6843E-14

 PERCENT DISCREPANCY =           0.00     PERCENT DISCREPANCY =           0.00



  LAK-1 BUDGET FOR ENTIRE MODEL AT END OF TIME STEP   15, STRESS PERIOD  23
  ------------------------------------------------------------------------------

     CUMULATIVE LAK-1      L**3       RATES FOR THIS TIME STEP      L**3/T
     ------------------                 ------------------------

           IN:                                      IN:
           ---                                      ---
                 GWF =   501422695.3786                   GWF =          10.3225
            RAINFALL =   519818400.0000              RAINFALL =           8.6000
         EVAPORATION =           0.0000           EVAPORATION =           0.0000
              RUNOFF =   271998000.0000                RUNOFF =           4.5000
          EXT-INFLOW =           0.0000            EXT-INFLOW =           0.0000
          WITHDRAWAL =           0.0000            WITHDRAWAL =           0.0000
         EXT-OUTFLOW =           1.5103           EXT-OUTFLOW =           0.0000
             STORAGE =      334885.2259               STORAGE =           0.0000
            CONSTANT =           0.0000              CONSTANT =           0.0000
            FROM-MVR = 12582827027.2224              FROM-MVR =         210.8376
              TO-MVR =           0.0000                TO-MVR =           0.0000

            TOTAL IN = 13876401009.3373              TOTAL IN =         234.2600

          OUT:                                     OUT:
          ----                                     ----
                 GWF =   232809602.4507                   GWF =           3.1563
            RAINFALL =           0.0000              RAINFALL =           0.0000
         EVAPORATION =   259909200.0000           EVAPORATION =           4.3000
              RUNOFF =           0.0000                RUNOFF =           0.0000
          EXT-INFLOW =           0.0000            EXT-INFLOW =           0.0000
          WITHDRAWAL =     7253280.0000            WITHDRAWAL =           0.1200
         EXT-OUTFLOW =           5.3273           EXT-OUTFLOW =       3.7322E-07
             STORAGE =    11341097.9122               STORAGE =           0.1488
            CONSTANT =           0.0000              CONSTANT =           0.0000
            FROM-MVR =           0.0000              FROM-MVR =           0.0000
              TO-MVR = 13365087823.4456                TO-MVR =         226.5349

           TOTAL OUT = 13876401009.1358             TOTAL OUT =         234.2600

            IN - OUT =           0.2015              IN - OUT =       2.2776E-07

 PERCENT DISCREPANCY =           0.00     PERCENT DISCREPANCY =           0.00



  UZF-1 BUDGET FOR ENTIRE MODEL AT END OF TIME STEP   15, STRESS PERIOD  23
  ------------------------------------------------------------------------------

     CUMULATIVE UZF-1      L**3       RATES FOR THIS TIME STEP      L**3/T
     ------------------                 ------------------------

           IN:                                      IN:
           ---                                      ---
                 GWF =           0.0000                   GWF =           0.0000
        INFILTRATION =  6024599071.2000          INFILTRATION =           7.6500
             REJ-INF =           0.0000               REJ-INF =           0.0000
                UZET =           0.0000                  UZET =           0.0000
             STORAGE =  3531263417.8410               STORAGE =          78.2797
            FROM-MVR =   201042000.0000              FROM-MVR =           0.0000
      REJ-INF-TO-MVR =           0.0000        REJ-INF-TO-MVR =           0.0000

            TOTAL IN =  9756904489.0410              TOTAL IN =          85.9297

          OUT:                                     OUT:
          ----                                     ----
                 GWF =  2764106124.0902                   GWF =          62.8045
        INFILTRATION =           0.0000          INFILTRATION =           0.0000
             REJ-INF =          64.5683               REJ-INF =           0.0000
                UZET =  1282427915.5783                  UZET =          22.6086
             STORAGE =  5687540174.6540               STORAGE =           0.4666
            FROM-MVR =           0.0000              FROM-MVR =           0.0000
      REJ-INF-TO-MVR =    22830082.2534        REJ-INF-TO-MVR =       5.0000E-02

           TOTAL OUT =  9756904361.1442             TOTAL OUT =          85.9297

            IN - OUT =         127.8968              IN - OUT =       2.5251E-06

 PERCENT DISCREPANCY =           0.00     PERCENT DISCREPANCY =           0.00



  WATER MOVER BUDGET FOR ENTIRE MODEL AT END OF TIME STEP   15, STRESS PERIOD  23
  ------------------------------------------------------------------------------

     CUMULATIVE WATER MOVER      L**3       RATES FOR THIS TIME STEP      L**3/T
     ------------------                 ------------------------

           IN:                                      IN:
           ---                                      ---
               UZF-1 =   409974894.5242                 UZF-1 =           8.8977
               SFR-1 = 12582827027.2224                 SFR-1 =         210.8376
               LAK-1 = 13365087823.4456                 LAK-1 =         226.5349
               WEL-1 =   201042000.0000                 WEL-1 =           0.0000

            TOTAL IN = 26558931745.1922              TOTAL IN =         446.2703

          OUT:                                     OUT:
          ----                                     ----
               UZF-1 =   201042000.0000                 UZF-1 =           0.0000
               SFR-1 = 13775062717.9698                 SFR-1 =         235.4327
               LAK-1 = 12582827027.2224                 LAK-1 =         210.8376
               WEL-1 =           0.0000                 WEL-1 =           0.0000

           TOTAL OUT = 26558931745.1922             TOTAL OUT =         446.2703

            IN - OUT =           0.0000              IN - OUT =           0.0000

 PERCENT DISCREPANCY =           0.00     PERCENT DISCREPANCY =           0.00



  VOLUME BUDGET FOR ENTIRE MODEL AT END OF TIME STEP   15, STRESS PERIOD  23
  ---------------------------------------------------------------------------------------------------

     CUMULATIVE VOLUME      L**3       RATES FOR THIS TIME STEP      L**3/T          PACKAGE NAME    
     ------------------                 ------------------------                     ----------------

           IN:                                      IN:
           ---                                      ---
              STO-SS =     1071494.4453                STO-SS =       3.6760E-02     STORAGE                          
              STO-SY =   336843086.0421                STO-SY =           8.8742     STORAGE                          
                 WEL =           0.0000                   WEL =           0.0000     WEL-1                            
          WEL-TO-MVR =           0.0000            WEL-TO-MVR =           0.0000     WEL-1                            
                 GHB =    40964291.1060                   GHB =           0.5850     GHB_0                            
                 SFR =   708082100.5674                   SFR =          10.8085     SFR-1                            
                 LAK =   232809602.4507                   LAK =           3.1563     LAK-1                            
           UZF-GWRCH =  2764106124.0902             UZF-GWRCH =          62.8045     UZF-1                            
             UZF-GWD =           0.0000               UZF-GWD =           0.0000     UZF-1                            
      UZF-GWD TO-MVR =           0.0000        UZF-GWD TO-MVR =           0.0000     UZF-1                            
            UZF-GWET =           0.0000              UZF-GWET =           0.0000     UZF-1                            

            TOTAL IN =  4083876698.7016              TOTAL IN =          86.2652

          OUT:                                     OUT:
          ----                                     ----
              STO-SS =    12257579.1600                STO-SS =           0.1697     STORAGE                          
              STO-SY =  2530802968.3638                STO-SY =          58.0403     STORAGE                          
                 WEL =           0.0000                   WEL =           0.0000     WEL-1                            
          WEL-TO-MVR =   201042000.0000            WEL-TO-MVR =           0.0000     WEL-1                            
                 GHB =    20684786.3448                   GHB =           0.3424     GHB_0                            
                 SFR =   394437674.6047                   SFR =           7.8170     SFR-1                            
                 LAK =   501422695.3786                   LAK =          10.3225     LAK-1                            
           UZF-GWRCH =           0.0000             UZF-GWRCH =           0.0000     UZF-1                            
             UZF-GWD =         117.5329               UZF-GWD =           0.0000     UZF-1                            
      UZF-GWD TO-MVR =   387144812.2708        UZF-GWD TO-MVR =           8.8477     UZF-1                            
            UZF-GWET =    36057674.8414              UZF-GWET =           0.7249     UZF-1                            

           TOTAL OUT =  4083850308.4971             TOTAL OUT =          86.2645

            IN - OUT =       26390.2045              IN - OUT =       6.8452E-04

 PERCENT DISCREPANCY =           0.00     PERCENT DISCREPANCY =           0.00




         TIME SUMMARY AT END OF TIME STEP   15 IN STRESS PERIOD   23
                    SECONDS     MINUTES      HOURS       DAYS        YEARS
                    -----------------------------------------------------------
   TIME STEP LENGTH 1.75200E+05  2920.0      48.667      2.0278     5.55175E-03
 STRESS PERIOD TIME 2.62800E+06  43800.      730.00      30.417     8.32763E-02
         TOTAL TIME 6.04440E+07 1.00740E+06  16790.      699.58      1.9154    


end timestep


start timestep kper="24" kstp="1" mode="normal"


 OUTPUT CONTROL FOR STRESS PERIOD 24 IS REPEATED USING SETTINGS FROM A PREVIOUS STRESS PERIOD.


 STRESS PERIOD 24 IS TRANSIENT


 REUSING MVRS FROM LAST STRESS PERIOD

 REUSING SFRS FROM LAST STRESS PERIOD

 REUSING LAKS FROM LAST STRESS PERIOD

end timestep


start timestep kper="24" kstp="2" mode="normal"


end timestep


start timestep kper="24" kstp="3" mode="normal"


end timestep


start timestep kper="24" kstp="4" mode="normal"


end timestep


start timestep kper="24" kstp="5" mode="normal"


end timestep


start timestep kper="24" kstp="6" mode="normal"


end timestep


start timestep kper="24" kstp="7" mode="normal"


end timestep


start timestep kper="24" kstp="8" mode="normal"


end timestep


start timestep kper="24" kstp="9" mode="normal"


end timestep


start timestep kper="24" kstp="10" mode="normal"


end timestep


start timestep kper="24" kstp="11" mode="normal"


end timestep


start timestep kper="24" kstp="12" mode="normal"


end timestep


start timestep kper="24" kstp="13" mode="normal"


end timestep


start timestep kper="24" kstp="14" mode="normal"


end timestep


start timestep kper="24" kstp="15" mode="normal"

 UBDSV1 SAVING           STO-SS ON UNIT   1025 AT TIME STEP     15, STRESS PERIOD     24
 UBDSV1 SAVING           STO-SY ON UNIT   1025 AT TIME STEP     15, STRESS PERIOD     24
 UBDSV1 SAVING     FLOW-JA-FACE ON UNIT   1025 AT TIME STEP     15, STRESS PERIOD     24
 UBDSV06 SAVING       DATA-SPDIS IN MODEL E13              PACKAGE NPF             CONNECTED TO MODEL E13              PACKAGE NPF              ON UNIT   1025 AT TIME STEP     15, STRESS PERIOD     24
 UBDSV06 SAVING              WEL IN MODEL E13              PACKAGE E13             CONNECTED TO MODEL E13              PACKAGE WEL-1            ON UNIT   1025 AT TIME STEP     15, STRESS PERIOD     24
 UBDSV06 SAVING       WEL-TO-MVR IN MODEL E13              PACKAGE E13             CONNECTED TO MODEL E13              PACKAGE WEL-1            ON UNIT   1025 AT TIME STEP     15, STRESS PERIOD     24
 UBDSV06 SAVING              GHB IN MODEL E13              PACKAGE E13             CONNECTED TO MODEL E13              PACKAGE GHB_0            ON UNIT   1025 AT TIME STEP     15, STRESS PERIOD     24
 UBDSV06 SAVING              SFR IN MODEL E13              PACKAGE E13             CONNECTED TO MODEL E13              PACKAGE SFR-1            ON UNIT   1025 AT TIME STEP     15, STRESS PERIOD     24
 UBDSV06 SAVING              LAK IN MODEL E13              PACKAGE E13             CONNECTED TO MODEL E13              PACKAGE LAK-1            ON UNIT   1025 AT TIME STEP     15, STRESS PERIOD     24
 UBDSV06 SAVING        UZF-GWRCH IN MODEL E13              PACKAGE E13             CONNECTED TO MODEL E13              PACKAGE UZF-1            ON UNIT   1025 AT TIME STEP     15, STRESS PERIOD     24
 UBDSV06 SAVING          UZF-GWD IN MODEL E13              PACKAGE E13             CONNECTED TO MODEL E13              PACKAGE UZF-1            ON UNIT   1025 AT TIME STEP     15, STRESS PERIOD     24
 UBDSV06 SAVING   UZF-GWD TO-MVR IN MODEL E13              PACKAGE E13             CONNECTED TO MODEL E13              PACKAGE UZF-1            ON UNIT   1025 AT TIME STEP     15, STRESS PERIOD     24
 UBDSV06 SAVING         UZF-GWET IN MODEL E13              PACKAGE E13             CONNECTED TO MODEL E13              PACKAGE UZF-1            ON UNIT   1025 AT TIME STEP     15, STRESS PERIOD     24
 UBDSV06 SAVING     FLOW-JA-FACE IN MODEL E13              PACKAGE SFR-1           CONNECTED TO MODEL E13              PACKAGE SFR-1            ON UNIT   1017 AT TIME STEP     15, STRESS PERIOD     24
 UBDSV06 SAVING              GWF IN MODEL E13              PACKAGE SFR-1           CONNECTED TO MODEL E13              PACKAGE E13              ON UNIT   1017 AT TIME STEP     15, STRESS PERIOD     24
 UBDSV06 SAVING         RAINFALL IN MODEL E13              PACKAGE SFR-1           CONNECTED TO MODEL E13              PACKAGE SFR-1            ON UNIT   1017 AT TIME STEP     15, STRESS PERIOD     24
 UBDSV06 SAVING      EVAPORATION IN MODEL E13              PACKAGE SFR-1           CONNECTED TO MODEL E13              PACKAGE SFR-1            ON UNIT   1017 AT TIME STEP     15, STRESS PERIOD     24
 UBDSV06 SAVING           RUNOFF IN MODEL E13              PACKAGE SFR-1           CONNECTED TO MODEL E13              PACKAGE SFR-1            ON UNIT   1017 AT TIME STEP     15, STRESS PERIOD     24
 UBDSV06 SAVING       EXT-INFLOW IN MODEL E13              PACKAGE SFR-1           CONNECTED TO MODEL E13              PACKAGE SFR-1            ON UNIT   1017 AT TIME STEP     15, STRESS PERIOD     24
 UBDSV06 SAVING      EXT-OUTFLOW IN MODEL E13              PACKAGE SFR-1           CONNECTED TO MODEL E13              PACKAGE SFR-1            ON UNIT   1017 AT TIME STEP     15, STRESS PERIOD     24
 UBDSV06 SAVING          STORAGE IN MODEL E13              PACKAGE SFR-1           CONNECTED TO MODEL E13              PACKAGE SFR-1            ON UNIT   1017 AT TIME STEP     15, STRESS PERIOD     24
 UBDSV06 SAVING         FROM-MVR IN MODEL E13              PACKAGE SFR-1           CONNECTED TO MODEL E13              PACKAGE SFR-1            ON UNIT   1017 AT TIME STEP     15, STRESS PERIOD     24
 UBDSV06 SAVING           TO-MVR IN MODEL E13              PACKAGE SFR-1           CONNECTED TO MODEL E13              PACKAGE SFR-1            ON UNIT   1017 AT TIME STEP     15, STRESS PERIOD     24
 UBDSV06 SAVING              GWF IN MODEL E13              PACKAGE LAK-1           CONNECTED TO MODEL E13              PACKAGE E13              ON UNIT   1019 AT TIME STEP     15, STRESS PERIOD     24
 UBDSV06 SAVING         RAINFALL IN MODEL E13              PACKAGE LAK-1           CONNECTED TO MODEL E13              PACKAGE LAK-1            ON UNIT   1019 AT TIME STEP     15, STRESS PERIOD     24
 UBDSV06 SAVING      EVAPORATION IN MODEL E13              PACKAGE LAK-1           CONNECTED TO MODEL E13              PACKAGE LAK-1            ON UNIT   1019 AT TIME STEP     15, STRESS PERIOD     24
 UBDSV06 SAVING           RUNOFF IN MODEL E13              PACKAGE LAK-1           CONNECTED TO MODEL E13              PACKAGE LAK-1            ON UNIT   1019 AT TIME STEP     15, STRESS PERIOD     24
 UBDSV06 SAVING       EXT-INFLOW IN MODEL E13              PACKAGE LAK-1           CONNECTED TO MODEL E13              PACKAGE LAK-1            ON UNIT   1019 AT TIME STEP     15, STRESS PERIOD     24
 UBDSV06 SAVING       WITHDRAWAL IN MODEL E13              PACKAGE LAK-1           CONNECTED TO MODEL E13              PACKAGE LAK-1            ON UNIT   1019 AT TIME STEP     15, STRESS PERIOD     24
 UBDSV06 SAVING      EXT-OUTFLOW IN MODEL E13              PACKAGE LAK-1           CONNECTED TO MODEL E13              PACKAGE LAK-1            ON UNIT   1019 AT TIME STEP     15, STRESS PERIOD     24
 UBDSV06 SAVING          STORAGE IN MODEL E13              PACKAGE LAK-1           CONNECTED TO MODEL E13              PACKAGE LAK-1            ON UNIT   1019 AT TIME STEP     15, STRESS PERIOD     24
 UBDSV06 SAVING         CONSTANT IN MODEL E13              PACKAGE LAK-1           CONNECTED TO MODEL E13              PACKAGE LAK-1            ON UNIT   1019 AT TIME STEP     15, STRESS PERIOD     24
 UBDSV06 SAVING         FROM-MVR IN MODEL E13              PACKAGE LAK-1           CONNECTED TO MODEL E13              PACKAGE LAK-1            ON UNIT   1019 AT TIME STEP     15, STRESS PERIOD     24
 UBDSV06 SAVING           TO-MVR IN MODEL E13              PACKAGE LAK-1           CONNECTED TO MODEL E13              PACKAGE LAK-1            ON UNIT   1019 AT TIME STEP     15, STRESS PERIOD     24
 UBDSV06 SAVING     FLOW-JA-FACE IN MODEL E13              PACKAGE UZF-1           CONNECTED TO MODEL E13              PACKAGE UZF-1            ON UNIT   1021 AT TIME STEP     15, STRESS PERIOD     24
 UBDSV06 SAVING              GWF IN MODEL E13              PACKAGE UZF-1           CONNECTED TO MODEL E13              PACKAGE E13              ON UNIT   1021 AT TIME STEP     15, STRESS PERIOD     24
 UBDSV06 SAVING     INFILTRATION IN MODEL E13              PACKAGE UZF-1           CONNECTED TO MODEL E13              PACKAGE UZF-1            ON UNIT   1021 AT TIME STEP     15, STRESS PERIOD     24
 UBDSV06 SAVING          REJ-INF IN MODEL E13              PACKAGE UZF-1           CONNECTED TO MODEL E13              PACKAGE UZF-1            ON UNIT   1021 AT TIME STEP     15, STRESS PERIOD     24
 UBDSV06 SAVING             UZET IN MODEL E13              PACKAGE UZF-1           CONNECTED TO MODEL E13              PACKAGE UZF-1            ON UNIT   1021 AT TIME STEP     15, STRESS PERIOD     24
 UBDSV06 SAVING          STORAGE IN MODEL E13              PACKAGE UZF-1           CONNECTED TO MODEL E13              PACKAGE UZF-1            ON UNIT   1021 AT TIME STEP     15, STRESS PERIOD     24
 UBDSV06 SAVING         FROM-MVR IN MODEL E13              PACKAGE UZF-1           CONNECTED TO MODEL E13              PACKAGE UZF-1            ON UNIT   1021 AT TIME STEP     15, STRESS PERIOD     24
 UBDSV06 SAVING   REJ-INF-TO-MVR IN MODEL E13              PACKAGE UZF-1           CONNECTED TO MODEL E13              PACKAGE UZF-1            ON UNIT   1021 AT TIME STEP     15, STRESS PERIOD     24
 UBDSV06 SAVING       MOVER-FLOW IN MODEL E13              PACKAGE UZF-1           CONNECTED TO MODEL E13              PACKAGE UZF-1            ON UNIT   1023 AT TIME STEP     15, STRESS PERIOD     24
 UBDSV06 SAVING       MOVER-FLOW IN MODEL E13              PACKAGE UZF-1           CONNECTED TO MODEL E13              PACKAGE SFR-1            ON UNIT   1023 AT TIME STEP     15, STRESS PERIOD     24
 UBDSV06 SAVING       MOVER-FLOW IN MODEL E13              PACKAGE UZF-1           CONNECTED TO MODEL E13              PACKAGE LAK-1            ON UNIT   1023 AT TIME STEP     15, STRESS PERIOD     24
 UBDSV06 SAVING       MOVER-FLOW IN MODEL E13              PACKAGE UZF-1           CONNECTED TO MODEL E13              PACKAGE WEL-1            ON UNIT   1023 AT TIME STEP     15, STRESS PERIOD     24
 UBDSV06 SAVING       MOVER-FLOW IN MODEL E13              PACKAGE SFR-1           CONNECTED TO MODEL E13              PACKAGE UZF-1            ON UNIT   1023 AT TIME STEP     15, STRESS PERIOD     24
 UBDSV06 SAVING       MOVER-FLOW IN MODEL E13              PACKAGE SFR-1           CONNECTED TO MODEL E13              PACKAGE SFR-1            ON UNIT   1023 AT TIME STEP     15, STRESS PERIOD     24
 UBDSV06 SAVING       MOVER-FLOW IN MODEL E13              PACKAGE SFR-1           CONNECTED TO MODEL E13              PACKAGE LAK-1            ON UNIT   1023 AT TIME STEP     15, STRESS PERIOD     24
 UBDSV06 SAVING       MOVER-FLOW IN MODEL E13              PACKAGE SFR-1           CONNECTED TO MODEL E13              PACKAGE WEL-1            ON UNIT   1023 AT TIME STEP     15, STRESS PERIOD     24
 UBDSV06 SAVING       MOVER-FLOW IN MODEL E13              PACKAGE LAK-1           CONNECTED TO MODEL E13              PACKAGE UZF-1            ON UNIT   1023 AT TIME STEP     15, STRESS PERIOD     24
 UBDSV06 SAVING       MOVER-FLOW IN MODEL E13              PACKAGE LAK-1           CONNECTED TO MODEL E13              PACKAGE SFR-1            ON UNIT   1023 AT TIME STEP     15, STRESS PERIOD     24
 UBDSV06 SAVING       MOVER-FLOW IN MODEL E13              PACKAGE LAK-1           CONNECTED TO MODEL E13              PACKAGE LAK-1            ON UNIT   1023 AT TIME STEP     15, STRESS PERIOD     24
 UBDSV06 SAVING       MOVER-FLOW IN MODEL E13              PACKAGE LAK-1           CONNECTED TO MODEL E13              PACKAGE WEL-1            ON UNIT   1023 AT TIME STEP     15, STRESS PERIOD     24
 UBDSV06 SAVING       MOVER-FLOW IN MODEL E13              PACKAGE WEL-1           CONNECTED TO MODEL E13              PACKAGE UZF-1            ON UNIT   1023 AT TIME STEP     15, STRESS PERIOD     24
 UBDSV06 SAVING       MOVER-FLOW IN MODEL E13              PACKAGE WEL-1           CONNECTED TO MODEL E13              PACKAGE SFR-1            ON UNIT   1023 AT TIME STEP     15, STRESS PERIOD     24
 UBDSV06 SAVING       MOVER-FLOW IN MODEL E13              PACKAGE WEL-1           CONNECTED TO MODEL E13              PACKAGE LAK-1            ON UNIT   1023 AT TIME STEP     15, STRESS PERIOD     24
 UBDSV06 SAVING       MOVER-FLOW IN MODEL E13              PACKAGE WEL-1           CONNECTED TO MODEL E13              PACKAGE WEL-1            ON UNIT   1023 AT TIME STEP     15, STRESS PERIOD     24

 WEL PACKAGE (WEL-1) FLOW RATES   PERIOD     24   STEP       15
 -----------------------------------------------
   NUMBER   CELLID                    RATE      
 -----------------------------------------------
     1      (1,6,4)               0.0000000     
     2      (1,6,5)               0.0000000     
     3      (1,7,4)               0.0000000     
     4      (1,7,5)               0.0000000     
     5      (1,8,4)               0.0000000     
     6      (1,8,5)               0.0000000     
     7      (1,9,4)               0.0000000     
     8      (1,9,5)               0.0000000     
     9      (1,10,4)              0.0000000     
     10     (1,10,5)              0.0000000     
 -----------------------------------------------




 WEL PACKAGE (WEL-1) FLOW RATES TO-MVR   PERIOD     24   STEP       15
 -----------------------------------------------
   NUMBER   CELLID                    RATE      
 -----------------------------------------------
     1      (1,6,4)               0.0000000     
     2      (1,6,5)               0.0000000     
     3      (1,7,4)               0.0000000     
     4      (1,7,5)               0.0000000     
     5      (1,8,4)               0.0000000     
     6      (1,8,5)               0.0000000     
     7      (1,9,4)               0.0000000     
     8      (1,9,5)               0.0000000     
     9      (1,10,4)              0.0000000     
     10     (1,10,5)              0.0000000     
 -----------------------------------------------




 SFR PACKAGE (SFR-1) FLOW RATES   PERIOD     24   STEP       15
 ----------------------------------------------------------------------------------------
   NUMBER   CELLID                    RATE       NAME                                    
 ----------------------------------------------------------------------------------------
     1      (1,1,1)               0.22868377     ALLREACHES                              
     2      (1,2,2)               0.35499870     ALLREACHES                              
     3      (1,3,3)               0.30357347     ALLREACHES                              
     4      (1,3,4)               0.28021936     ALLREACHES                              
     5      (1,4,5)               0.29960805     ALLREACHES                              
     6      (1,5,6)               0.22987955     ALLREACHES                              
     7      (1,6,6)               0.22936563     ALLREACHES                              
     8      (1,7,6)               0.22884928     ALLREACHES                              
     9      (1,8,6)               0.22833044     ALLREACHES                              
     10     (1,3,5)               2.12214188E-02 ALLREACHES                              
     11     (1,3,6)               1.99133007E-02 ALLREACHES                              
     12     (1,3,7)               1.67956407E-02 ALLREACHES                              
     13     (1,4,8)               2.07205450E-02 ALLREACHES                              
     14     (1,5,8)               1.57905563E-02 ALLREACHES                              
     15     (1,6,8)               5.93648362E-03 ALLREACHES                              
     16     (1,5,10)              9.09197693E-02 ALLREACHES                              
     17     (1,5,9)               0.18157734     ALLREACHES                              
     18     (1,6,8)               0.12689514     ALLREACHES                              
     19     (1,6,8)               0.17138468     ALLREACHES                              
     20     (1,7,7)               0.21384773     ALLREACHES                              
     21     (1,8,7)               0.14943953     ALLREACHES                              
     22     (1,8,6)               0.10661428     ALLREACHES                              
     23     (1,9,6)               0.24837387     ALLREACHES                              
     24     (1,12,7)              2.56321789E-02 ALLREACHES                              
     25     (1,13,7)              2.81913554E-02 ALLREACHES                              
     26     (1,14,9)              2.6922030      ALLREACHES                              
     27     (1,13,8)              2.3522081      ALLREACHES                              
     28     (1,13,7)              1.8168014      ALLREACHES                              
     29     (1,13,6)             -3.0961167      ALLREACHES                              
     30     (1,13,2)             -3.3905064      ALLREACHES                              
     31     (1,13,1)             -1.3096263      ALLREACHES                              
 ----------------------------------------------------------------------------------------




 LAK PACKAGE (LAK-1) FLOW RATES   PERIOD     24   STEP       15
 -----------------------------------------------
   NUMBER   CELLID                    RATE      
 -----------------------------------------------
     1      (1,9,7)               7.30382128E-03
     2      (1,10,6)              9.25546906E-03
     3      (2,10,7)              0.78902113    
     4      (1,9,8)               4.40201542E-03
     5      (1,10,9)              1.06573995E-04
     6      (2,10,8)              0.75764606    
     7      (1,11,6)              1.00969734E-02
     8      (1,12,7)              9.08670628E-03
     9      (2,11,7)              0.79034656    
     10     (1,11,9)              2.63484159E-03
     11     (1,12,8)              8.50283954E-03
     12     (2,11,8)              0.75910438    
     13     (1,10,3)             -2.00651203E-03
     14     (1,11,2)             -2.16053355E-03
     15     (2,11,3)             -0.84493472    
     16     (1,10,4)             -2.40440574E-03
     17     (2,11,4)             -0.86309807    
     18     (1,10,5)             -5.25602019E-03
     19     (1,11,6)             -5.55074896E-03
     20     (2,11,5)             -0.88737029    
     21     (1,12,2)             -5.67265130E-03
     22     (2,12,3)             -0.80556689    
     23     (2,12,4)             -0.84177351    
     24     (1,12,6)             -7.51323050E-03
     25     (2,12,5)             -0.87629619    
     26     (1,13,2)             -1.26730405E-03
     27     (2,13,3)             -0.79130471    
     28     (2,13,4)             -0.83847470    
     29     (1,13,6)             -7.41344062E-03
     30     (2,13,5)             -0.87711305    
     31     (1,14,2)             -5.71662507E-03
     32     (1,15,3)              0.0000000     
     33     (2,14,3)             -0.81212404    
     34     (1,15,4)              0.0000000     
     35     (2,14,4)             -0.85129570    
     36     (1,14,6)             -5.45187130E-03
     37     (1,15,5)              0.0000000     
     38     (2,14,5)             -0.88659758    
 -----------------------------------------------




 SFR-1 PACKAGE - SUMMARY OF FLOWS FOR EACH CONTROL VOLUME   PERIOD     24   STEP       15
 --------------------------------------------------------------------------------------------------------------------------------------------------------------------------------------------------------
                                                                                                                                                                                               PERCENT   
   NUMBER   CELLID                  INFLOW      OUTFLOW        GWF        RAINFALL   EVAPORATION     RUNOFF     EXT INFLOW  EXT OUTFLOW    STORAGE      FROM MVR      TO MVR      IN - OUT    DIFFERENCE 
 --------------------------------------------------------------------------------------------------------------------------------------------------------------------------------------------------------
     1      (1,1,1)               0.0000      -24.771      -0.22868      0.0000       0.0000       0.0000       25.000       0.0000       0.0000       0.0000       0.0000       0.0000       0.0000     
     2      (1,2,2)               24.771      -24.416      -0.35500      0.0000       0.0000       0.0000       0.0000       0.0000       0.0000       0.0000       0.0000       0.0000       0.0000     
     3      (1,3,3)               24.416      -24.113      -0.30357      0.0000       0.0000       0.0000       0.0000       0.0000       0.0000       0.0000       0.0000       0.0000       0.0000     
     4      (1,3,4)               24.113      -23.833      -0.28022      0.0000       0.0000       0.0000       0.0000       0.0000       0.0000       0.0000       0.0000       0.0000       0.0000     
     5      (1,4,5)               13.833      -13.533      -0.29961      0.0000       0.0000       0.0000       0.0000       0.0000       0.0000       0.0000       0.0000       0.0000       0.0000     
     6      (1,5,6)               13.533      -13.303      -0.22988      0.0000       0.0000       0.0000       0.0000       0.0000       0.0000       0.0000       0.0000       0.0000       0.0000     
     7      (1,6,6)               13.303      -13.074      -0.22937      0.0000       0.0000       0.0000       0.0000       0.0000       0.0000       0.0000       0.0000       0.0000       0.0000     
     8      (1,7,6)               13.074      -12.845      -0.22885      0.0000       0.0000       0.0000       0.0000       0.0000       0.0000       0.0000       0.0000       0.0000       0.0000     
     9      (1,8,6)               12.845      -12.616      -0.22833      0.0000       0.0000       0.0000       0.0000       0.0000       0.0000       0.0000       0.0000       0.0000       0.0000     
     10     (1,3,5)               10.000      -9.9788      -2.12214E-02  0.0000       0.0000       0.0000       0.0000       0.0000       0.0000       0.0000       0.0000       0.0000       0.0000     
     11     (1,3,6)               9.9788      -9.9589      -1.99133E-02  0.0000       0.0000       0.0000       0.0000       0.0000       0.0000       0.0000       0.0000       0.0000       0.0000     
     12     (1,3,7)               9.9589      -9.9421      -1.67956E-02  0.0000       0.0000       0.0000       0.0000       0.0000       0.0000       0.0000       0.0000       0.0000       0.0000     
     13     (1,4,8)               9.9421      -9.9213      -2.07205E-02  0.0000       0.0000       0.0000       0.0000       0.0000       0.0000       0.0000       0.0000       0.0000       0.0000     
     14     (1,5,8)               9.9213      -9.9056      -1.57906E-02  0.0000       0.0000       0.0000       0.0000       0.0000       0.0000       0.0000       0.0000       0.0000       0.0000     
     15     (1,6,8)               9.9056      -9.8996      -5.93648E-03  0.0000       0.0000       0.0000       0.0000       0.0000       0.0000       0.0000       0.0000       0.0000       0.0000     
     16     (1,5,10)              0.0000      -9.9091      -9.09198E-02  0.0000       0.0000       0.0000       10.000       0.0000       0.0000       0.0000       0.0000       0.0000       0.0000     
     17     (1,5,9)               9.9091      -9.7275      -0.18158      0.0000       0.0000       0.0000       0.0000       0.0000       0.0000       0.0000       0.0000       0.0000       0.0000     
     18     (1,6,8)               9.7275      -9.6006      -0.12690      0.0000       0.0000       0.0000       0.0000       0.0000       0.0000       0.0000       0.0000       0.0000       0.0000     
     19     (1,6,8)               19.500      -19.329      -0.17138      0.0000       0.0000       0.0000       0.0000       0.0000       0.0000       0.0000       0.0000       0.0000       0.0000     
     20     (1,7,7)               19.329      -19.115      -0.21385      0.0000       0.0000       0.0000       0.0000       0.0000       0.0000       0.0000       0.0000       0.0000       0.0000     
     21     (1,8,7)               19.115      -18.966      -0.14944      0.0000       0.0000       0.0000       0.0000       0.0000       0.0000       0.0000       0.0000       0.0000       0.0000     
     22     (1,8,6)               18.966      -18.859      -0.10661      0.0000       0.0000       0.0000       0.0000       0.0000       0.0000       0.0000       0.0000       0.0000       0.0000     
     23     (1,9,6)               31.475       0.0000      -0.24837      0.0000       0.0000       0.0000       0.0000       0.0000       0.0000       0.0000      -31.227       0.0000       0.0000     
     24     (1,12,7)              0.0000      -33.536      -2.56322E-02  0.0000       0.0000       0.0000       0.0000       0.0000       0.0000       33.561       0.0000       0.0000       0.0000     
     25     (1,13,7)              33.536      -33.507      -2.81914E-02  0.0000       0.0000       0.0000       0.0000       0.0000       0.0000       0.0000       0.0000       0.0000       0.0000     
     26     (1,14,9)              0.0000      -147.31      -2.6922       0.0000       0.0000       0.0000       150.00       0.0000       0.0000       0.0000       0.0000       0.0000       0.0000     
     27     (1,13,8)              147.31      -144.96      -2.3522       0.0000       0.0000       0.0000       0.0000       0.0000       0.0000       0.0000       0.0000       0.0000       0.0000     
     28     (1,13,7)              144.96      -143.14      -1.8168       0.0000       0.0000       0.0000       0.0000       0.0000       0.0000       0.0000       0.0000       0.0000       0.0000     
     29     (1,13,6)              176.65       0.0000       3.0961       0.0000       0.0000       0.0000       0.0000      -2.35202E-08  0.0000       0.0000      -179.74       0.0000       0.0000     
     30     (1,13,2)              0.0000      -197.59       3.3905       0.0000       0.0000       0.0000       0.0000       0.0000       0.0000       194.20       0.0000       0.0000       0.0000     
     31     (1,13,1)              197.59       0.0000       1.3096       0.0000       0.0000       0.0000       0.0000      -206.60       0.0000       7.7010       0.0000       0.0000       0.0000     
 --------------------------------------------------------------------------------------------------------------------------------------------------------------------------------------------------------



 LAK-1 PACKAGE - SUMMARY OF FLOWS FOR EACH CONTROL VOLUME   PERIOD     24   STEP       15
 -----------------------------------------------------------------------------------------------------------------------------------------------------------------------------------
                                                                                                                                                                          PERCENT   
   NUMBER       GWF        RAINFALL   EVAPORATION     RUNOFF     EXT INFLOW   WITHDRAWAL  EXT OUTFLOW    STORAGE      CONSTANT     FROM MVR      TO MVR      IN - OUT    DIFFERENCE 
 -----------------------------------------------------------------------------------------------------------------------------------------------------------------------------------
     1      -3.1475       5.0000      -1.0000       1.5000       0.0000       0.0000       0.0000      -1.83880E-02  0.0000       31.227      -33.561       1.55887E-07  4.13196E-07
     2       10.226       3.6000      -3.3000       3.0000       0.0000      -0.12000     -1.94060E-07 -1.99134E-02  0.0000       179.74      -193.13      -5.17624E-07 -2.63330E-07
 -----------------------------------------------------------------------------------------------------------------------------------------------------------------------------------



 WATER MOVER PACKAGE (MVR) FLOW RATES   PERIOD     24   STEP       15
 --------------------------------------------------------------------------------------------------------------------------
                                               PROVIDER  AVAILABLE   PROVIDED                                     RECEIVER 
   NUMBER           PROVIDER LOCATION             ID        RATE       RATE            RECEIVER LOCATION             ID    
 --------------------------------------------------------------------------------------------------------------------------
     1                  E13/SFR-1                 23      31.2       31.2                  E13/LAK-1                 1     
     2                  E13/LAK-1                 1       33.6       33.6                  E13/SFR-1                 24    
     3                  E13/SFR-1                 29      180.       180.                  E13/LAK-1                 2     
     4                  E13/LAK-1                 2       193.       193.                  E13/SFR-1                 30    
     5                  E13/UZF-1                 1       0.00       0.00                  E13/SFR-1                 1     
     6                  E13/UZF-1                 2       0.00       0.00                  E13/SFR-1                 2     
     7                  E13/UZF-1                 3       0.00       0.00                  E13/SFR-1                 2     
     8                  E13/UZF-1                 4       0.00       0.00                  E13/SFR-1                 2     
     9                  E13/UZF-1                 5       0.00       0.00                  E13/SFR-1                 3     
     10                 E13/UZF-1                 6       0.00       0.00                  E13/SFR-1                 11    
     11                 E13/UZF-1                 7       0.00       0.00                  E13/SFR-1                 12    
     12                 E13/UZF-1                 8       0.00       0.00                  E13/SFR-1                 12    
     13                 E13/UZF-1                 9       0.00       0.00                  E13/SFR-1                 2     
     14                 E13/UZF-1                 10      0.00       0.00                  E13/SFR-1                 3     
     15                 E13/UZF-1                 11      0.00       0.00                  E13/SFR-1                 4     
     16                 E13/UZF-1                 12      0.00       0.00                  E13/SFR-1                 10    
     17                 E13/UZF-1                 13      0.00       0.00                  E13/SFR-1                 11    
     18                 E13/UZF-1                 14      0.00       0.00                  E13/SFR-1                 12    
     19                 E13/UZF-1                 15      0.00       0.00                  E13/SFR-1                 13    
     20                 E13/UZF-1                 16      0.00       0.00                  E13/LAK-1                 2     
     21                 E13/UZF-1                 17      0.00       0.00                  E13/LAK-1                 2     
     22                 E13/UZF-1                 18      0.00       0.00                  E13/SFR-1                 3     
     23                 E13/UZF-1                 19      0.00       0.00                  E13/SFR-1                 4     
     24                 E13/UZF-1                 20      0.00       0.00                  E13/SFR-1                 5     
     25                 E13/UZF-1                 21      0.00       0.00                  E13/SFR-1                 6     
     26                 E13/UZF-1                 22      0.00       0.00                  E13/SFR-1                 6     
     27                 E13/UZF-1                 23      0.00       0.00                  E13/SFR-1                 13    
     28                 E13/UZF-1                 24      0.00       0.00                  E13/SFR-1                 17    
     29                 E13/UZF-1                 25      0.00       0.00                  E13/LAK-1                 2     
     30                 E13/UZF-1                 26      0.00       0.00                  E13/LAK-1                 2     
     31                 E13/UZF-1                 27      0.00       0.00                  E13/LAK-1                 2     
     32                 E13/UZF-1                 28      0.00       0.00                  E13/LAK-1                 2     
     33                 E13/UZF-1                 29      0.00       0.00                  E13/SFR-1                 5     
     34                 E13/UZF-1                 30      0.00       0.00                  E13/SFR-1                 6     
     35                 E13/UZF-1                 31      0.00       0.00                  E13/SFR-1                 6     
     36                 E13/UZF-1                 32      0.00       0.00                  E13/SFR-1                 14    
     37                 E13/UZF-1                 33      0.00       0.00                  E13/SFR-1                 17    
     38                 E13/UZF-1                 34      0.00       0.00                  E13/SFR-1                 16    
     39                 E13/UZF-1                 35      0.00       0.00                  E13/LAK-1                 2     
     40                 E13/UZF-1                 36      0.00       0.00                  E13/LAK-1                 2     
     41                 E13/UZF-1                 37      0.00       0.00                  E13/LAK-1                 2     
     42                 E13/UZF-1                 38      0.00       0.00                  E13/LAK-1                 2     
     43                 E13/UZF-1                 39      0.00       0.00                  E13/LAK-1                 2     
     44                 E13/UZF-1                 40      0.00       0.00                  E13/SFR-1                 7     
     45                 E13/UZF-1                 41      0.00       0.00                  E13/SFR-1                 7     
     46                 E13/UZF-1                 42      0.00       0.00                  E13/SFR-1                 19    
     47                 E13/UZF-1                 43      0.00       0.00                  E13/SFR-1                 17    
     48                 E13/UZF-1                 44      0.00       0.00                  E13/SFR-1                 16    
     49                 E13/UZF-1                 45      0.00       0.00                  E13/LAK-1                 2     
     50                 E13/UZF-1                 46      0.00       0.00                  E13/LAK-1                 2     
     51                 E13/UZF-1                 47      0.00       0.00                  E13/LAK-1                 2     
     52                 E13/UZF-1                 48      0.00       0.00                  E13/LAK-1                 2     
     53                 E13/UZF-1                 49      0.00       0.00                  E13/LAK-1                 2     
     54                 E13/UZF-1                 50      0.00       0.00                  E13/SFR-1                 8     
     55                 E13/UZF-1                 51      0.00       0.00                  E13/SFR-1                 20    
     56                 E13/UZF-1                 52      0.00       0.00                  E13/SFR-1                 20    
     57                 E13/UZF-1                 53      0.00       0.00                  E13/SFR-1                 20    
     58                 E13/UZF-1                 54      0.00       0.00                  E13/LAK-1                 2     
     59                 E13/UZF-1                 55      0.00       0.00                  E13/LAK-1                 2     
     60                 E13/UZF-1                 56      0.00       0.00                  E13/LAK-1                 2     
     61                 E13/UZF-1                 57      0.00       0.00                  E13/LAK-1                 2     
     62                 E13/UZF-1                 58      0.00       0.00                  E13/SFR-1                 9     
     63                 E13/UZF-1                 59      0.00       0.00                  E13/SFR-1                 21    
     64                 E13/UZF-1                 60      0.00       0.00                  E13/SFR-1                 21    
     65                 E13/UZF-1                 61      0.00       0.00                  E13/SFR-1                 21    
     66                 E13/UZF-1                 62      0.00       0.00                  E13/LAK-1                 2     
     67                 E13/UZF-1                 63      0.00       0.00                  E13/LAK-1                 2     
     68                 E13/UZF-1                 64      0.00       0.00                  E13/LAK-1                 2     
     69                 E13/UZF-1                 65      0.00       0.00                  E13/LAK-1                 2     
     70                 E13/UZF-1                 66      0.00       0.00                  E13/SFR-1                 23    
     71                 E13/UZF-1                 67      0.00       0.00                  E13/LAK-1                 1     
     72                 E13/UZF-1                 68      0.00       0.00                  E13/LAK-1                 1     
     73                 E13/UZF-1                 69      0.00       0.00                  E13/LAK-1                 1     
     74                 E13/UZF-1                 70      0.00       0.00                  E13/LAK-1                 2     
     75                 E13/UZF-1                 71      0.00       0.00                  E13/LAK-1                 2     
     76                 E13/UZF-1                 72      0.00       0.00                  E13/LAK-1                 2     
     77                 E13/UZF-1                 73      0.00       0.00                  E13/LAK-1                 2     
     78                 E13/UZF-1                 74      0.00       0.00                  E13/LAK-1                 1     
     79                 E13/UZF-1                 75      0.00       0.00                  E13/LAK-1                 1     
     80                 E13/UZF-1                 76      0.00       0.00                  E13/LAK-1                 1     
     81                 E13/UZF-1                 77      0.00       0.00                  E13/LAK-1                 2     
     82                 E13/UZF-1                 78      0.00       0.00                  E13/SFR-1                 9     
     83                 E13/UZF-1                 79      0.00       0.00                  E13/LAK-1                 1     
     84                 E13/UZF-1                 80      0.00       0.00                  E13/SFR-1                 31    
     85                 E13/UZF-1                 81      0.00       0.00                  E13/SFR-1                 30    
     86                 E13/UZF-1                 82      0.00       0.00                  E13/SFR-1                 9     
     87                 E13/UZF-1                 83      0.00       0.00                  E13/SFR-1                 24    
     88                 E13/UZF-1                 84      0.00       0.00                  E13/LAK-1                 1     
     89                 E13/UZF-1                 85      0.00       0.00                  E13/LAK-1                 1     
     90                 E13/UZF-1                 86      7.70       7.70                  E13/SFR-1                 31    
     91                 E13/UZF-1                 87      1.07       1.07                  E13/SFR-1                 30    
     92                 E13/UZF-1                 88      0.00       0.00                  E13/SFR-1                 29    
     93                 E13/UZF-1                 89      0.00       0.00                  E13/SFR-1                 28    
     94                 E13/UZF-1                 90      0.00       0.00                  E13/SFR-1                 27    
     95                 E13/UZF-1                 91      0.00       0.00                  E13/SFR-1                 26    
     96                 E13/UZF-1                 92      0.00       0.00                  E13/SFR-1                 30    
     97                 E13/UZF-1                 93      0.00       0.00                  E13/LAK-1                 2     
     98                 E13/UZF-1                 94      0.00       0.00                  E13/SFR-1                 28    
     99                 E13/UZF-1                 95      0.00       0.00                  E13/SFR-1                 27    
    100                 E13/UZF-1                 96      0.00       0.00                  E13/SFR-1                 26    
    101                 E13/UZF-1                 97      0.00       0.00                  E13/LAK-1                 2     
    102                 E13/UZF-1                 98      0.00       0.00                  E13/LAK-1                 2     
    103                 E13/UZF-1                 99      0.00       0.00                  E13/LAK-1                 2     
    104                 E13/UZF-1                100      0.00       0.00                  E13/LAK-1                 2     
    105                 E13/WEL-1                 1       0.00       0.00                  E13/UZF-1                 38    
    106                 E13/WEL-1                 2       0.00       0.00                  E13/UZF-1                 39    
    107                 E13/WEL-1                 3       0.00       0.00                  E13/UZF-1                 48    
    108                 E13/WEL-1                 4       0.00       0.00                  E13/UZF-1                 49    
    109                 E13/WEL-1                 5       0.00       0.00                  E13/UZF-1                 56    
    110                 E13/WEL-1                 6       0.00       0.00                  E13/UZF-1                 57    
    111                 E13/WEL-1                 7       0.00       0.00                  E13/UZF-1                 64    
    112                 E13/WEL-1                 8       0.00       0.00                  E13/UZF-1                 65    
    113                 E13/WEL-1                 9       0.00       0.00                  E13/UZF-1                 72    
    114                 E13/WEL-1                 10      0.00       0.00                  E13/UZF-1                 73    
 --------------------------------------------------------------------------------------------------------------------------



 SFR PACKAGE (SFR-1) STAGES FOR EACH CONTROL VOLUME   PERIOD     24   STEP       15
 ------------------------------------------------------------------------------------------------------------------------------------------------------
                                                                                                                               STREAMBED    STREAMBED  
 NAME                                       NUMBER   CELLID                  STAGE        DEPTH        WIDTH       GWF HEAD   CONDUCTANCE    GRADIENT  
 ------------------------------------------------------------------------------------------------------------------------------------------------------
 ALLREACHES                                   1      (1,1,1)               1094.3       1.2349       12.000       1022.7       5.40000E-02  1.4116     
 ALLREACHES                                   2      (1,2,2)               1089.3       1.2262       12.000       1023.8       8.40000E-02  1.4087     
 ALLREACHES                                   3      (1,3,3)               1083.6       1.2163       12.000       1024.4       7.20000E-02  1.4054     
 ALLREACHES                                   4      (1,3,4)               1078.6       1.2075       12.000       1024.5       6.66000E-02  1.4025     
 ALLREACHES                                   5      (1,4,5)               1072.8       0.84113      12.000       1024.5       7.80000E-02  1.2804     
 ALLREACHES                                   6      (1,5,6)               1067.3       0.83133      12.000       1024.0       6.00000E-02  1.2771     
 ALLREACHES                                   7      (1,6,6)               1062.6       0.82276      12.000       1021.4       6.00000E-02  1.2743     
 ALLREACHES                                   8      (1,7,6)               1057.9       0.81415      12.000       1021.3       6.00000E-02  1.2714     
 ALLREACHES                                   9      (1,8,6)               1053.2       0.80551      12.000       1021.4       6.00000E-02  1.2685     
 ALLREACHES                                   10     (1,3,5)               1074.6       0.93630      9.6364       1023.9       7.22727E-03  1.4681     
 ALLREACHES                                   11     (1,3,6)               1071.9       0.98022      8.9091       1024.4       6.68182E-03  1.4901     
 ALLREACHES                                   12     (1,3,7)               1069.3       1.0277       8.2182       1027.4       5.54727E-03  1.5139     
 ALLREACHES                                   13     (1,4,8)               1066.5       1.0884       7.4545       1022.4       6.70909E-03  1.5442     
 ALLREACHES                                   14     (1,5,8)               1063.6       1.1639       6.6545       1021.0       4.99091E-03  1.5819     
 ALLREACHES                                   15     (1,6,8)               1061.8       1.2200       6.1455       1021.6       1.84364E-03  1.6100     
 ALLREACHES                                   16     (1,5,10)              1078.4       0.63679      10.000       1023.2       2.50000E-02  1.2123     
 ALLREACHES                                   17     (1,5,9)               1071.5       0.63155      10.000       1023.6       5.00000E-02  1.2105     
 ALLREACHES                                   18     (1,6,8)               1063.8       0.62558      10.000       1021.6       3.50000E-02  1.2085     
 ALLREACHES                                   19     (1,6,8)               1060.0       1.2846       10.000       1021.6       4.00000E-02  1.4282     
 ALLREACHES                                   20     (1,7,7)               1056.9       1.2770       10.000       1021.3       5.00000E-02  1.4257     
 ALLREACHES                                   21     (1,8,7)               1054.1       1.2697       10.000       1021.3       3.50000E-02  1.4232     
 ALLREACHES                                   22     (1,8,6)               1052.1       1.2646       10.000       1021.4       2.50000E-02  1.4215     
 ALLREACHES                                   23     (1,9,6)               1046.6       1.1396       12.000       1021.1       6.00000E-02  1.3799     
 ALLREACHES                                   24     (1,12,7)              1037.7       1.2720       12.000       1023.1       6.00000E-03  1.4240     
 ALLREACHES                                   25     (1,13,7)              1030.2       1.2714       12.000       1025.1       6.60000E-03  1.4238     
 ALLREACHES                                   26     (1,14,9)              1034.8       1.4870       60.000       1029.9       0.60000      1.4957     
 ALLREACHES                                   27     (1,13,8)              1031.5       1.4718       60.000       1027.6       0.60000      1.3068     
 ALLREACHES                                   28     (1,13,7)              1028.1       1.4592       60.000       1025.1       0.60000      1.0093     
 ALLREACHES                                   29     (1,13,6)              1013.9       0.91696      60.000       1019.1       0.60000     -1.7201     
 ALLREACHES                                   30     (1,13,2)              998.33       1.4532       60.000       1004.0       0.60000     -1.8836     
 ALLREACHES                                   31     (1,13,1)              993.37       1.4975       60.000       997.01       0.36000     -1.2126     
 ------------------------------------------------------------------------------------------------------------------------------------------------------



 LAK PACKAGE (LAK-1) STAGES FOR EACH CONTROL VOLUME   PERIOD     24   STEP       15
 --------------------------------------------------------------
   NUMBER      STAGE     SURFACE AREA WETTED AREA     VOLUME   
 --------------------------------------------------------------
     1       1041.3       1.00000E+08  1.01383E+08  4.27727E+09
     2       1001.4       3.00000E+08  3.01643E+08  5.30726E+09
 --------------------------------------------------------------



 HEAD WILL BE SAVED ON UNIT 1026 AT END OF TIME STEP   15, STRESS PERIOD   24


  SFR-1 BUDGET FOR ENTIRE MODEL AT END OF TIME STEP   15, STRESS PERIOD  24
  ------------------------------------------------------------------------------

     CUMULATIVE SFR-1      L**3       RATES FOR THIS TIME STEP      L**3/T
     ------------------                 ------------------------

           IN:                                      IN:
           ---                                      ---
                 GWF =   414947452.5476                   GWF =           7.7962
            RAINFALL =           0.0000              RAINFALL =           0.0000
         EVAPORATION =           0.0000           EVAPORATION =           0.0000
              RUNOFF =           0.0000                RUNOFF =           0.0000
          EXT-INFLOW = 11668320000.0000            EXT-INFLOW =         185.0000
         EXT-OUTFLOW =       1.7046E-02           EXT-OUTFLOW =           0.0000
             STORAGE =           0.0000               STORAGE =           0.0000
            FROM-MVR = 14393886331.4097              FROM-MVR =         235.4647
              TO-MVR =           0.0000                TO-MVR =           0.0000

            TOTAL IN = 26477153783.9744              TOTAL IN =         428.2610

          OUT:                                     OUT:
          ----                                     ----
                 GWF =   736279485.9164                   GWF =          10.6880
            RAINFALL =           0.0000              RAINFALL =           0.0000
         EVAPORATION =           0.0000           EVAPORATION =           0.0000
              RUNOFF =           0.0000                RUNOFF =           0.0000
          EXT-INFLOW =           0.0000            EXT-INFLOW =           0.0000
         EXT-OUTFLOW = 12603741429.0657           EXT-OUTFLOW =         206.6037
             STORAGE =           0.0000               STORAGE =           0.0000
            FROM-MVR =           0.0000              FROM-MVR =           0.0000
              TO-MVR = 13137132868.9922                TO-MVR =         210.9693

           TOTAL OUT = 26477153783.9743             TOTAL OUT =         428.2610

            IN - OUT =       1.5259E-05              IN - OUT =       5.6843E-14

 PERCENT DISCREPANCY =           0.00     PERCENT DISCREPANCY =           0.00



  LAK-1 BUDGET FOR ENTIRE MODEL AT END OF TIME STEP   15, STRESS PERIOD  24
  ------------------------------------------------------------------------------

     CUMULATIVE LAK-1      L**3       RATES FOR THIS TIME STEP      L**3/T
     ------------------                 ------------------------

           IN:                                      IN:
           ---                                      ---
                 GWF =   528422713.2951                   GWF =          10.2264
            RAINFALL =   542419200.0000              RAINFALL =           8.6000
         EVAPORATION =           0.0000           EVAPORATION =           0.0000
              RUNOFF =   283824000.0000                RUNOFF =           4.5000
          EXT-INFLOW =           0.0000            EXT-INFLOW =           0.0000
          WITHDRAWAL =           0.0000            WITHDRAWAL =           0.0000
         EXT-OUTFLOW =           1.5103           EXT-OUTFLOW =           0.0000
             STORAGE =      334885.2259               STORAGE =           0.0000
            CONSTANT =           0.0000              CONSTANT =           0.0000
            FROM-MVR = 13137132868.9922              FROM-MVR =         210.9693
              TO-MVR =           0.0000                TO-MVR =           0.0000

            TOTAL IN = 14492133669.0236              TOTAL IN =         234.2957

          OUT:                                     OUT:
          ----                                     ----
                 GWF =   241091316.3114                   GWF =           3.1475
            RAINFALL =           0.0000              RAINFALL =           0.0000
         EVAPORATION =   271209600.0000           EVAPORATION =           4.3000
              RUNOFF =           0.0000                RUNOFF =           0.0000
          EXT-INFLOW =           0.0000            EXT-INFLOW =           0.0000
          WITHDRAWAL =     7568640.0000            WITHDRAWAL =           0.1200
         EXT-OUTFLOW =           6.1374           EXT-OUTFLOW =       1.9406E-07
             STORAGE =    11578383.3750               STORAGE =       3.8301E-02
            CONSTANT =           0.0000              CONSTANT =           0.0000
            FROM-MVR =           0.0000              FROM-MVR =           0.0000
              TO-MVR = 13960685723.4686                TO-MVR =         226.6899

           TOTAL OUT = 14492133669.2924             TOTAL OUT =         234.2957

            IN - OUT =          -0.2688              IN - OUT =      -3.6174E-07

 PERCENT DISCREPANCY =          -0.00     PERCENT DISCREPANCY =          -0.00



  UZF-1 BUDGET FOR ENTIRE MODEL AT END OF TIME STEP   15, STRESS PERIOD  24
  ------------------------------------------------------------------------------

     CUMULATIVE UZF-1      L**3       RATES FOR THIS TIME STEP      L**3/T
     ------------------                 ------------------------

           IN:                                      IN:
           ---                                      ---
                 GWF =           0.0000                   GWF =           0.0000
        INFILTRATION =  6044703271.2000          INFILTRATION =           7.6500
             REJ-INF =           0.0000               REJ-INF =           0.0000
                UZET =           0.0000                  UZET =           0.0000
             STORAGE =  3713655493.6848               STORAGE =          66.1499
            FROM-MVR =   201042000.0000              FROM-MVR =           0.0000
      REJ-INF-TO-MVR =           0.0000        REJ-INF-TO-MVR =           0.0000

            TOTAL IN =  9959400764.8848              TOTAL IN =          73.7999

          OUT:                                     OUT:
          ----                                     ----
                 GWF =  2902678894.9580                   GWF =          47.8159
        INFILTRATION =           0.0000          INFILTRATION =           0.0000
             REJ-INF =          64.5683               REJ-INF =           0.0000
                UZET =  1342156718.2027                  UZET =          22.8290
             STORAGE =  5691603470.5469               STORAGE =           3.1050
            FROM-MVR =           0.0000              FROM-MVR =           0.0000
      REJ-INF-TO-MVR =    22961482.3500        REJ-INF-TO-MVR =       5.0000E-02

           TOTAL OUT =  9959400630.6259             TOTAL OUT =          73.7999

            IN - OUT =         134.2589              IN - OUT =       2.2800E-06

 PERCENT DISCREPANCY =           0.00     PERCENT DISCREPANCY =           0.00



  WATER MOVER BUDGET FOR ENTIRE MODEL AT END OF TIME STEP   15, STRESS PERIOD  24
  ------------------------------------------------------------------------------

     CUMULATIVE WATER MOVER      L**3       RATES FOR THIS TIME STEP      L**3/T
     ------------------                 ------------------------

           IN:                                      IN:
           ---                                      ---
               UZF-1 =   433200607.9411                 UZF-1 =           8.7749
               SFR-1 = 13137132868.9922                 SFR-1 =         210.9693
               LAK-1 = 13960685723.4686                 LAK-1 =         226.6899
               WEL-1 =   201042000.0000                 WEL-1 =           0.0000

            TOTAL IN = 27732061200.4020              TOTAL IN =         446.4341

          OUT:                                     OUT:
          ----                                     ----
               UZF-1 =   201042000.0000                 UZF-1 =           0.0000
               SFR-1 = 14393886331.4097                 SFR-1 =         235.4647
               LAK-1 = 13137132868.9922                 LAK-1 =         210.9693
               WEL-1 =           0.0000                 WEL-1 =           0.0000

           TOTAL OUT = 27732061200.4020             TOTAL OUT =         446.4341

            IN - OUT =       7.6294E-06              IN - OUT =           0.0000

 PERCENT DISCREPANCY =           0.00     PERCENT DISCREPANCY =           0.00



  VOLUME BUDGET FOR ENTIRE MODEL AT END OF TIME STEP   15, STRESS PERIOD  24
  ---------------------------------------------------------------------------------------------------

     CUMULATIVE VOLUME      L**3       RATES FOR THIS TIME STEP      L**3/T          PACKAGE NAME    
     ------------------                 ------------------------                     ----------------

           IN:                                      IN:
           ---                                      ---
              STO-SS =     1201749.2288                STO-SS =       4.7755E-02     STORAGE                          
              STO-SY =   362451642.5711                STO-SY =           9.1394     STORAGE                          
                 WEL =           0.0000                   WEL =           0.0000     WEL-1                            
          WEL-TO-MVR =           0.0000            WEL-TO-MVR =           0.0000     WEL-1                            
                 GHB =    42485152.3053                   GHB =           0.5736     GHB_0                            
                 SFR =   736279479.9129                   SFR =          10.6880     SFR-1                            
                 LAK =   241091316.3114                   LAK =           3.1475     LAK-1                            
           UZF-GWRCH =  2902678894.9580             UZF-GWRCH =          47.8159     UZF-1                            
             UZF-GWD =           0.0000               UZF-GWD =           0.0000     UZF-1                            
      UZF-GWD TO-MVR =           0.0000        UZF-GWD TO-MVR =           0.0000     UZF-1                            
            UZF-GWET =           0.0000              UZF-GWET =           0.0000     UZF-1                            

            TOTAL IN =  4286188235.2875              TOTAL IN =          71.4121

          OUT:                                     OUT:
          ----                                     ----
              STO-SS =    12628615.9026                STO-SS =           0.1223     STORAGE                          
              STO-SY =  2659322006.3978                STO-SY =          43.4672     STORAGE                          
                 WEL =           0.0000                   WEL =           0.0000     WEL-1                            
          WEL-TO-MVR =   201042000.0000            WEL-TO-MVR =           0.0000     WEL-1                            
                 GHB =    21584604.0567                   GHB =           0.3424     GHB_0                            
                 SFR =   414947774.8513                   SFR =           7.7962     SFR-1                            
                 LAK =   528422713.2951                   LAK =          10.2264     LAK-1                            
           UZF-GWRCH =           0.0000             UZF-GWRCH =           0.0000     UZF-1                            
             UZF-GWD =         117.5329               UZF-GWD =           0.0000     UZF-1                            
      UZF-GWD TO-MVR =   410239125.5911        UZF-GWD TO-MVR =           8.7249     UZF-1                            
            UZF-GWET =    37974163.2635              UZF-GWET =           0.7325     UZF-1                            

           TOTAL OUT =  4286161120.8911             TOTAL OUT =          71.4120

            IN - OUT =       27114.3965              IN - OUT =       1.7670E-04

 PERCENT DISCREPANCY =           0.00     PERCENT DISCREPANCY =           0.00




         TIME SUMMARY AT END OF TIME STEP   15 IN STRESS PERIOD   24
                    SECONDS     MINUTES      HOURS       DAYS        YEARS
                    -----------------------------------------------------------
   TIME STEP LENGTH 1.75200E+05  2920.0      48.667      2.0278     5.55175E-03
 STRESS PERIOD TIME 2.62800E+06  43800.      730.00      30.417     8.32763E-02
         TOTAL TIME 6.30720E+07 1.05120E+06  17520.      730.00      1.9986    


end timestep

